data_image0
_cell_length_a       23.5686
_cell_length_b       23.5686
_cell_length_c       23.5686
_cell_angle_alpha    60
_cell_angle_beta     60
_cell_angle_gamma    60

_symmetry_space_group_name_H-M    "P 1"
_symmetry_int_tables_number       1

loop_
  _symmetry_equiv_pos_as_xyz
  'x, y, z'

loop_
  _atom_site_label
  _atom_site_occupancy
  _atom_site_Cartn_x
  _atom_site_Cartn_y
  _atom_site_Cartn_z
  _atom_site_thermal_displace_type
  _atom_site_B_iso_or_equiv
  _atom_site_type_symbol
  H1       1.0000 16.84615  13.81003  27.44875  Biso   1.000  H
  H2       1.0000 16.48485  19.52097  27.44875  Biso   1.000  H
  H3       1.0000 16.48485  13.81003  5.88225  Biso   1.000  H
  H4       1.0000 16.84615  19.52097  5.88225  Biso   1.000  H
  H5       1.0000 27.44875  16.84615  13.81003  Biso   1.000  H
  H6       1.0000 27.44875  16.48485  19.52097  Biso   1.000  H
  H7       1.0000 5.88225  16.48485  13.81003  Biso   1.000  H
  H8       1.0000 5.88225  16.84615  19.52097  Biso   1.000  H
  H9       1.0000 13.81003  27.44875  16.84615  Biso   1.000  H
  H10      1.0000 19.52097  27.44875  16.48485  Biso   1.000  H
  H11      1.0000 13.81003  5.88225  16.48485  Biso   1.000  H
  H12      1.0000 19.52097  5.88225  16.84615  Biso   1.000  H
  H13      1.0000 13.81003  16.84615  27.44875  Biso   1.000  H
  H14      1.0000 19.52097  16.48485  27.44875  Biso   1.000  H
  H15      1.0000 13.81003  16.48485  5.88225  Biso   1.000  H
  H16      1.0000 19.52097  16.84615  5.88225  Biso   1.000  H
  H17      1.0000 16.84615  27.44875  13.81003  Biso   1.000  H
  H18      1.0000 16.48485  27.44875  19.52097  Biso   1.000  H
  H19      1.0000 16.48485  5.88225  13.81003  Biso   1.000  H
  H20      1.0000 16.84615  5.88225  19.52097  Biso   1.000  H
  H21      1.0000 27.44875  13.81003  16.84615  Biso   1.000  H
  H22      1.0000 27.44875  19.52097  16.48485  Biso   1.000  H
  H23      1.0000 5.88225  13.81003  16.48485  Biso   1.000  H
  H24      1.0000 5.88225  19.52097  16.84615  Biso   1.000  H
  H25      1.0000 16.92715  12.09249  25.70653  Biso   1.000  H
  H26      1.0000 16.40385  21.23851  25.70653  Biso   1.000  H
  H27      1.0000 16.40385  12.09249  7.62447  Biso   1.000  H
  H28      1.0000 16.92715  21.23851  7.62447  Biso   1.000  H
  H29      1.0000 25.70653  16.92715  12.09249  Biso   1.000  H
  H30      1.0000 25.70653  16.40385  21.23851  Biso   1.000  H
  H31      1.0000 7.62447  16.40385  12.09249  Biso   1.000  H
  H32      1.0000 7.62447  16.92715  21.23851  Biso   1.000  H
  H33      1.0000 12.09249  25.70653  16.92715  Biso   1.000  H
  H34      1.0000 21.23851  25.70653  16.40385  Biso   1.000  H
  H35      1.0000 12.09249  7.62447  16.40385  Biso   1.000  H
  H36      1.0000 21.23851  7.62447  16.92715  Biso   1.000  H
  H37      1.0000 12.09249  16.92715  25.70653  Biso   1.000  H
  H38      1.0000 21.23851  16.40385  25.70653  Biso   1.000  H
  H39      1.0000 12.09249  16.40385  7.62447  Biso   1.000  H
  H40      1.0000 21.23851  16.92715  7.62447  Biso   1.000  H
  H41      1.0000 16.92715  25.70653  12.09249  Biso   1.000  H
  H42      1.0000 16.40385  25.70653  21.23851  Biso   1.000  H
  H43      1.0000 16.40385  7.62447  12.09249  Biso   1.000  H
  H44      1.0000 16.92715  7.62447  21.23851  Biso   1.000  H
  H45      1.0000 25.70653  12.09249  16.92715  Biso   1.000  H
  H46      1.0000 25.70653  21.23851  16.40385  Biso   1.000  H
  H47      1.0000 7.62447  12.09249  16.40385  Biso   1.000  H
  H48      1.0000 7.62447  21.23851  16.92715  Biso   1.000  H
  H49      1.0000 16.95981  10.70158  24.32096  Biso   1.000  H
  H50      1.0000 16.37119  22.62942  24.32096  Biso   1.000  H
  H51      1.0000 16.37119  10.70158  9.01004  Biso   1.000  H
  H52      1.0000 16.95981  22.62942  9.01004  Biso   1.000  H
  H53      1.0000 24.32096  16.95981  10.70158  Biso   1.000  H
  H54      1.0000 24.32096  16.37119  22.62942  Biso   1.000  H
  H55      1.0000 9.01004  16.37119  10.70158  Biso   1.000  H
  H56      1.0000 9.01004  16.95981  22.62942  Biso   1.000  H
  H57      1.0000 10.70158  24.32096  16.95981  Biso   1.000  H
  H58      1.0000 22.62942  24.32096  16.37119  Biso   1.000  H
  H59      1.0000 10.70158  9.01004  16.37119  Biso   1.000  H
  H60      1.0000 22.62942  9.01004  16.95981  Biso   1.000  H
  H61      1.0000 10.70158  16.95981  24.32096  Biso   1.000  H
  H62      1.0000 22.62942  16.37119  24.32096  Biso   1.000  H
  H63      1.0000 10.70158  16.37119  9.01004  Biso   1.000  H
  H64      1.0000 22.62942  16.95981  9.01004  Biso   1.000  H
  H65      1.0000 16.95981  24.32096  10.70158  Biso   1.000  H
  H66      1.0000 16.37119  24.32096  22.62942  Biso   1.000  H
  H67      1.0000 16.37119  9.01004  10.70158  Biso   1.000  H
  H68      1.0000 16.95981  9.01004  22.62942  Biso   1.000  H
  H69      1.0000 24.32096  10.70158  16.95981  Biso   1.000  H
  H70      1.0000 24.32096  22.62942  16.37119  Biso   1.000  H
  H71      1.0000 9.01004  10.70158  16.37119  Biso   1.000  H
  H72      1.0000 9.01004  22.62942  16.95981  Biso   1.000  H
  C1       1.0000 16.86549  12.76077  27.72306  Biso   1.000  C
  C2       1.0000 16.46551  20.57023  27.72306  Biso   1.000  C
  C3       1.0000 16.46551  12.76077  5.60794  Biso   1.000  C
  C4       1.0000 16.86549  20.57023  5.60794  Biso   1.000  C
  C5       1.0000 27.72306  16.86549  12.76077  Biso   1.000  C
  C6       1.0000 27.72306  16.46551  20.57023  Biso   1.000  C
  C7       1.0000 5.60794  16.46551  12.76077  Biso   1.000  C
  C8       1.0000 5.60794  16.86549  20.57023  Biso   1.000  C
  C9       1.0000 12.76077  27.72306  16.86549  Biso   1.000  C
  C10      1.0000 20.57023  27.72306  16.46551  Biso   1.000  C
  C11      1.0000 12.76077  5.60794  16.46551  Biso   1.000  C
  C12      1.0000 20.57023  5.60794  16.86549  Biso   1.000  C
  C13      1.0000 12.76077  16.86549  27.72306  Biso   1.000  C
  C14      1.0000 20.57023  16.46551  27.72306  Biso   1.000  C
  C15      1.0000 12.76077  16.46551  5.60794  Biso   1.000  C
  C16      1.0000 20.57023  16.86549  5.60794  Biso   1.000  C
  C17      1.0000 16.86549  27.72306  12.76077  Biso   1.000  C
  C18      1.0000 16.46551  27.72306  20.57023  Biso   1.000  C
  C19      1.0000 16.46551  5.60794  12.76077  Biso   1.000  C
  C20      1.0000 16.86549  5.60794  20.57023  Biso   1.000  C
  C21      1.0000 27.72306  12.76077  16.86549  Biso   1.000  C
  C22      1.0000 27.72306  20.57023  16.46551  Biso   1.000  C
  C23      1.0000 5.60794  12.76077  16.46551  Biso   1.000  C
  C24      1.0000 5.60794  20.57023  16.86549  Biso   1.000  C
  C25      1.0000 16.91048  11.77584  26.74313  Biso   1.000  C
  C26      1.0000 16.42052  21.55516  26.74313  Biso   1.000  C
  C27      1.0000 16.42052  11.77584  6.58787  Biso   1.000  C
  C28      1.0000 16.91048  21.55516  6.58787  Biso   1.000  C
  C29      1.0000 26.74313  16.91048  11.77584  Biso   1.000  C
  C30      1.0000 26.74313  16.42052  21.55516  Biso   1.000  C
  C31      1.0000 6.58787  16.42052  11.77584  Biso   1.000  C
  C32      1.0000 6.58787  16.91048  21.55516  Biso   1.000  C
  C33      1.0000 11.77584  26.74313  16.91048  Biso   1.000  C
  C34      1.0000 21.55516  26.74313  16.42052  Biso   1.000  C
  C35      1.0000 11.77584  6.58787  16.42052  Biso   1.000  C
  C36      1.0000 21.55516  6.58787  16.91048  Biso   1.000  C
  C37      1.0000 11.77584  16.91048  26.74313  Biso   1.000  C
  C38      1.0000 21.55516  16.42052  26.74313  Biso   1.000  C
  C39      1.0000 11.77584  16.42052  6.58787  Biso   1.000  C
  C40      1.0000 21.55516  16.91048  6.58787  Biso   1.000  C
  C41      1.0000 16.91048  26.74313  11.77584  Biso   1.000  C
  C42      1.0000 16.42052  26.74313  21.55516  Biso   1.000  C
  C43      1.0000 16.42052  6.58787  11.77584  Biso   1.000  C
  C44      1.0000 16.91048  6.58787  21.55516  Biso   1.000  C
  C45      1.0000 26.74313  11.77584  16.91048  Biso   1.000  C
  C46      1.0000 26.74313  21.55516  16.42052  Biso   1.000  C
  C47      1.0000 6.58787  11.77584  16.42052  Biso   1.000  C
  C48      1.0000 6.58787  21.55516  16.91048  Biso   1.000  C
  C49      1.0000 16.95881  9.66766  24.64661  Biso   1.000  C
  C50      1.0000 16.37219  23.66334  24.64661  Biso   1.000  C
  C51      1.0000 16.37219  9.66766  8.68439  Biso   1.000  C
  C52      1.0000 16.95881  23.66334  8.68439  Biso   1.000  C
  C53      1.0000 24.64661  16.95881  9.66766  Biso   1.000  C
  C54      1.0000 24.64661  16.37219  23.66334  Biso   1.000  C
  C55      1.0000 8.68439  16.37219  9.66766  Biso   1.000  C
  C56      1.0000 8.68439  16.95881  23.66334  Biso   1.000  C
  C57      1.0000 9.66766  24.64661  16.95881  Biso   1.000  C
  C58      1.0000 23.66334  24.64661  16.37219  Biso   1.000  C
  C59      1.0000 9.66766  8.68439  16.37219  Biso   1.000  C
  C60      1.0000 23.66334  8.68439  16.95881  Biso   1.000  C
  C61      1.0000 9.66766  16.95881  24.64661  Biso   1.000  C
  C62      1.0000 23.66334  16.37219  24.64661  Biso   1.000  C
  C63      1.0000 9.66766  16.37219  8.68439  Biso   1.000  C
  C64      1.0000 23.66334  16.95881  8.68439  Biso   1.000  C
  C65      1.0000 16.95881  24.64661  9.66766  Biso   1.000  C
  C66      1.0000 16.37219  24.64661  23.66334  Biso   1.000  C
  C67      1.0000 16.37219  8.68439  9.66766  Biso   1.000  C
  C68      1.0000 16.95881  8.68439  23.66334  Biso   1.000  C
  C69      1.0000 24.64661  9.66766  16.95881  Biso   1.000  C
  C70      1.0000 24.64661  23.66334  16.37219  Biso   1.000  C
  C71      1.0000 8.68439  9.66766  16.37219  Biso   1.000  C
  C72      1.0000 8.68439  23.66334  16.95881  Biso   1.000  C
  O1       1.0000 16.72050  14.68231  29.74958  Biso   1.000  O
  O2       1.0000 16.61050  18.64869  29.74958  Biso   1.000  O
  O3       1.0000 16.61050  14.68231  3.58142  Biso   1.000  O
  O4       1.0000 16.72050  18.64869  3.58142  Biso   1.000  O
  O5       1.0000 29.74958  16.72050  14.68231  Biso   1.000  O
  O6       1.0000 29.74958  16.61050  18.64869  Biso   1.000  O
  O7       1.0000 3.58142  16.61050  14.68231  Biso   1.000  O
  O8       1.0000 3.58142  16.72050  18.64869  Biso   1.000  O
  O9       1.0000 14.68231  29.74958  16.72050  Biso   1.000  O
  O10      1.0000 18.64869  29.74958  16.61050  Biso   1.000  O
  O11      1.0000 14.68231  3.58142  16.61050  Biso   1.000  O
  O12      1.0000 18.64869  3.58142  16.72050  Biso   1.000  O
  O13      1.0000 14.68231  16.72050  29.74958  Biso   1.000  O
  O14      1.0000 18.64869  16.61050  29.74958  Biso   1.000  O
  O15      1.0000 14.68231  16.61050  3.58142  Biso   1.000  O
  O16      1.0000 18.64869  16.72050  3.58142  Biso   1.000  O
  O17      1.0000 16.72050  29.74958  14.68231  Biso   1.000  O
  O18      1.0000 16.61050  29.74958  18.64869  Biso   1.000  O
  O19      1.0000 16.61050  3.58142  14.68231  Biso   1.000  O
  O20      1.0000 16.72050  3.58142  18.64869  Biso   1.000  O
  O21      1.0000 29.74958  14.68231  16.72050  Biso   1.000  O
  O22      1.0000 29.74958  18.64869  16.61050  Biso   1.000  O
  O23      1.0000 3.58142  14.68231  16.61050  Biso   1.000  O
  O24      1.0000 3.58142  18.64869  16.72050  Biso   1.000  O
  H73      1.0000 18.63203  18.63203  31.36447  Biso   1.000  H
  H74      1.0000 31.36447  31.36447  31.36447  Biso   1.000  H
  H75      1.0000 31.36447  18.63203  18.63203  Biso   1.000  H
  H76      1.0000 18.63203  31.36447  18.63203  Biso   1.000  H
  C73      1.0000 0.09599  13.46972  13.46972  Biso   1.000  C
  C74      1.0000 16.56951  3.19578  13.46972  Biso   1.000  C
  C75      1.0000 16.56951  13.46972  3.19578  Biso   1.000  C
  C76      1.0000 0.09599  3.19578  3.19578  Biso   1.000  C
  C77      1.0000 13.46972  0.09599  13.46972  Biso   1.000  C
  C78      1.0000 13.46972  16.56951  3.19578  Biso   1.000  C
  C79      1.0000 3.19578  16.56951  13.46972  Biso   1.000  C
  C80      1.0000 3.19578  0.09599  3.19578  Biso   1.000  C
  C81      1.0000 13.46972  13.46972  0.09599  Biso   1.000  C
  C82      1.0000 3.19578  13.46972  16.56951  Biso   1.000  C
  C83      1.0000 13.46972  3.19578  16.56951  Biso   1.000  C
  C84      1.0000 3.19578  3.19578  0.09599  Biso   1.000  C
  C85      1.0000 0.17265  12.41313  12.41313  Biso   1.000  C
  C86      1.0000 16.49285  4.25237  12.41313  Biso   1.000  C
  C87      1.0000 16.49285  12.41313  4.25237  Biso   1.000  C
  C88      1.0000 0.17265  4.25237  4.25237  Biso   1.000  C
  C89      1.0000 12.41313  0.17265  12.41313  Biso   1.000  C
  C90      1.0000 12.41313  16.49285  4.25237  Biso   1.000  C
  C91      1.0000 4.25237  16.49285  12.41313  Biso   1.000  C
  C92      1.0000 4.25237  0.17265  4.25237  Biso   1.000  C
  C93      1.0000 12.41313  12.41313  0.17265  Biso   1.000  C
  C94      1.0000 4.25237  12.41313  16.49285  Biso   1.000  C
  C95      1.0000 12.41313  4.25237  16.49285  Biso   1.000  C
  C96      1.0000 4.25237  4.25237  0.17265  Biso   1.000  C
  C97      1.0000 0.28765  9.35201  9.35201  Biso   1.000  C
  C98      1.0000 16.37785  7.31349  9.35201  Biso   1.000  C
  C99      1.0000 16.37785  9.35201  7.31349  Biso   1.000  C
  C100     1.0000 0.28765  7.31349  7.31349  Biso   1.000  C
  C101     1.0000 9.35201  0.28765  9.35201  Biso   1.000  C
  C102     1.0000 9.35201  16.37785  7.31349  Biso   1.000  C
  C103     1.0000 7.31349  16.37785  9.35201  Biso   1.000  C
  C104     1.0000 7.31349  0.28765  7.31349  Biso   1.000  C
  C105     1.0000 9.35201  9.35201  0.28765  Biso   1.000  C
  C106     1.0000 7.31349  9.35201  16.37785  Biso   1.000  C
  C107     1.0000 9.35201  7.31349  16.37785  Biso   1.000  C
  C108     1.0000 7.31349  7.31349  0.28765  Biso   1.000  C
  C109     1.0000 0.26331  10.40594  10.40594  Biso   1.000  C
  C110     1.0000 16.40219  6.25956  10.40594  Biso   1.000  C
  C111     1.0000 16.40219  10.40594  6.25956  Biso   1.000  C
  C112     1.0000 0.26331  6.25956  6.25956  Biso   1.000  C
  C113     1.0000 10.40594  0.26331  10.40594  Biso   1.000  C
  C114     1.0000 10.40594  16.40219  6.25956  Biso   1.000  C
  C115     1.0000 6.25956  16.40219  10.40594  Biso   1.000  C
  C116     1.0000 6.25956  0.26331  6.25956  Biso   1.000  C
  C117     1.0000 10.40594  10.40594  0.26331  Biso   1.000  C
  C118     1.0000 6.25956  10.40594  16.40219  Biso   1.000  C
  C119     1.0000 10.40594  6.25956  16.40219  Biso   1.000  C
  C120     1.0000 6.25956  6.25956  0.26331  Biso   1.000  C
  O25      1.0000 31.92010  31.92010  31.92010  Biso   1.000  O
  O26      1.0000 18.07640  18.07640  31.92010  Biso   1.000  O
  O27      1.0000 18.07640  31.92010  18.07640  Biso   1.000  O
  O28      1.0000 31.92010  18.07640  18.07640  Biso   1.000  O
  O29      1.0000 1.03759  1.03759  1.03759  Biso   1.000  O
  O30      1.0000 15.62791  15.62791  1.03759  Biso   1.000  O
  O31      1.0000 15.62791  1.03759  15.62791  Biso   1.000  O
  O32      1.0000 1.03759  15.62791  15.62791  Biso   1.000  O
  Zr1      1.0000 30.80784  16.66550  16.66550  Biso   1.000  Zr
  Zr2      1.0000 2.52316  16.66550  16.66550  Biso   1.000  Zr
  Zr3      1.0000 16.66550  30.80784  16.66550  Biso   1.000  Zr
  Zr4      1.0000 16.66550  2.52316  16.66550  Biso   1.000  Zr
  Zr5      1.0000 16.66550  16.66550  30.80784  Biso   1.000  Zr
  Zr6      1.0000 16.66550  16.66550  2.52316  Biso   1.000  Zr
