#======================================================================

# CRYSTAL DATA

#----------------------------------------------------------------------

data_VESTA_phase_1


_pd_phase_name                         MOF
_cell_length_a                         8.57800
_cell_length_b                         13.86600
_cell_length_c                         21.03300
_cell_angle_alpha                      109.12800
_cell_angle_beta                       92.71000
_cell_angle_gamma                      89.97500
_symmetry_space_group_name_H-M         "P 1"
_symmetry_Int_Tables_number            1

loop_
_symmetry_equiv_pos_as_xyz
   "x, y, z"

loop_
   _atom_site_label
   _atom_site_fract_x
   _atom_site_fract_y
   _atom_site_fract_z
 _atom_site_charge
 Cu1 0.250315 0.000296 0.25005  1.04712636364
 Cu1 0.250074 0.001318 0.75011  1.04712636364
 Cu1 0.250377 0.500316 0.25005  1.04712636364
 Cu1 0.249994 0.501348 0.75009  1.04712636364
 Cu1 0.750275 0.000295 0.25004  1.04712636364
 Cu1 0.750058 0.001326 0.75011  1.04712636364
 Cu1 0.750351 0.500326 0.25005  1.04712636364
 Cu1 0.749995 0.501349 0.75009  1.04712636364
 Cu1 0.250468 0.250286 0.25004  1.04712636364
 Cu1 0.250257 0.251207 0.74999  1.04712636364
 Cu1 0.250367 0.750233 0.25001  1.04712636364
 Cu1 0.250205 0.751192 0.74997  1.04712636364
 Cu1 0.750447 0.250289 0.25004  1.04712636364
 Cu1 0.750242 0.251209 0.74999  1.04712636364
 Cu1 0.750332 0.750239 0.25001  1.04712636364
 Cu1 0.750235 0.751188 0.74997  1.04712636364
 P1 0.491796 0.088914 0.17674  1.44404136364
 P1 0.491684 0.089763 0.67674  1.44404136364
 P1 0.491799 0.588824 0.17672  1.44404136364
 P1 0.491599 0.589763 0.67673  1.44404136364
 P1 0.991779 0.088903 0.17674  1.44404136364
 P1 0.991652 0.089769 0.67675  1.44404136364
 P1 0.991786 0.588839 0.17673  1.44404136364
 P1 0.991595 0.589755 0.67671  1.44404136364
 P1 0.008796 0.41171 0.32329  1.44404136364
 P1 0.008535 0.41273 0.82331  1.44404136364
 P1 0.008711 0.911641 0.32329  1.44404136364
 P1 0.008559 0.912694 0.823  1.44404136364
 P1 0.508798 0.411726 0.32329  1.44404136364
 P1 0.508508 0.412722 0.82331  1.44404136364
 P1 0.50868 0.911655 0.32330  1.44404136364
 P1 0.508547 0.912687 0.82330  1.44404136364
 H1 0.151591 0.484052 0.09455  0.133811363636
 H1 0.151838 0.485056 0.59471  0.133811363636
 H1 0.151764 0.984319 0.09453  0.133811363636
 H1 0.151906 0.98512 0.5947  0.133811363636
 H1 0.651527 0.483996 0.0945  0.133811363636
 H1 0.651821 0.485057 0.59473  0.133811363636
 H1 0.65176 0.984365 0.09453  0.133811363636
 H1 0.651964 0.985146 0.59478  0.133811363636
 H1 0.382855 0.454759 0.03571  0.133811363636
 H1 0.383148 0.454901 0.53589  0.133811363636
 H1 0.382905 0.954867 0.03575  0.133811363636
 H1 0.383234 0.954932 0.53595  0.133811363636
 H1 0.88285 0.454759 0.03574  0.133811363636
 H1 0.88311 0.454904 0.53588  0.133811363636
 H1 0.88287 0.954881 0.03576  0.133811363636
 H1 0.883149 0.954946 0.53595  0.133811363636
 H1 0.348767 0.389424 0.40569  0.133811363636
 H1 0.348387 0.390062 0.90553  0.133811363636
 H1 0.348836 0.889281 0.40572  0.133811363636
 H1 0.348448 0.890023 0.90554  0.133811363636
 H1 0.848724 0.389395 0.40567  0.133811363636
 H1 0.848354 0.390106 0.90554  0.133811363636
 H1 0.848789 0.889278 0.40571  0.133811363636
 H1 0.848438 0.890023 0.90553  0.133811363636
 H1 0.117362 0.418969 0.46465  0.133811363636
 H1 0.116987 0.418847 0.96444  0.133811363636
 H1 0.117391 0.918963 0.46471  0.133811363636
 H1 0.116977 0.918907 0.96447  0.133811363636
 H1 0.617378 0.418991 0.46467  0.133811363636
 H1 0.616986 0.418829 0.96442  0.133811363636
 H1 0.617434 0.91897 0.46469  0.133811363636
 H1 0.617017 0.918927 0.96447  0.133811363636
 H1 0.348317 0.01596 0.40540  0.133811363636
 H1 0.348443 0.016893 0.90558  0.133811363636
 H1 0.34846 0.516137 0.40538  0.133811363636
 H1 0.348461 0.516986 0.90562  0.133811363636
 H1 0.848318 0.015955 0.40539  0.133811363636
 H1 0.848397 0.016892 0.905  0.133811363636
 H1 0.848409 0.516114 0.4053  0.133811363636
 H1 0.848503 0.517022 0.90563  0.133811363636
 H1 0.117223 0.045932 0.46417  0.133811363636
 H1 0.117459 0.046068 0.96433  0.133811363636
 H1 0.117241 0.546001 0.46416  0.133811363636
 H1 0.117487 0.546089 0.96438  0.133811363636
 H1 0.617235 0.045958 0.46416  0.133811363636
 H1 0.617438 0.046098 0.96432  0.133811363636
 H1 0.617248 0.546017 0.46419  0.133811363636
 H1 0.617475 0.546074 0.96435  0.133811363636
 H1 0.151855 0.111056 0.09432  0.133811363636
 H1 0.151599 0.111678 0.594  0.133811363636
 H1 0.152054 0.61081 0.09431  0.133811363636
 H1 0.151553 0.611658 0.59417  0.133811363636
 H1 0.651792 0.111093 0.09431  0.133811363636
 H1 0.651608 0.111707 0.59422  0.133811363636
 H1 0.652093 0.610749 0.09430  0.133811363636
 H1 0.651545 0.611661 0.59419  0.133811363636
 H1 0.383024 0.081967 0.03549  0.133811363636
 H1 0.382806 0.081874 0.53533  0.133811363636
 H1 0.383131 0.581948 0.03554  0.133811363636
 H1 0.38273 0.581882 0.53530  0.133811363636
 H1 0.883042 0.081983 0.03551  0.133811363636
 H1 0.88275 0.081869 0.53532  0.133811363636
 H1 0.883073 0.581945 0.03555  0.133811363636
 H1 0.882713 0.581888 0.53529  0.133811363636
 C1 0.074771 0.047911 0.09481  -0.424588636364
 C1 0.074703 0.048528 0.59483  -0.424588636364
 C1 0.074782 0.547756 0.09480  -0.424588636364
 C1 0.074645 0.548509 0.59479  -0.424588636364
 C1 0.574726 0.047937 0.09480  -0.424588636364
 C1 0.574735 0.048531 0.59483  -0.424588636364
 C1 0.574764 0.54772 0.09479  -0.424588636364
 C1 0.574637 0.548515 0.59482  -0.424588636364
 C2 0.459143 0.017282 0.03350  0.00922136363636
 C2 0.459169 0.017372 0.53352  0.00922136363636
 C2 0.459157 0.517202 0.03350  0.00922136363636
 C2 0.459114 0.517392 0.53350  0.00922136363636
 C2 0.959138 0.017286 0.03352  0.00922136363636
 C2 0.959117 0.017374 0.53352  0.00922136363636
 C2 0.959123 0.517213 0.03352  0.00922136363636
 C2 0.959078 0.517386 0.53348  0.00922136363636
 C1 0.425673 0.452647 0.40519  -0.424588636364
 C1 0.425471 0.453313 0.90522  -0.424588636364
 C1 0.42563 0.95256 0.40522  -0.424588636364
 C1 0.425487 0.953285 0.90521  -0.424588636364
 C1 0.925621 0.45263 0.40518  -0.424588636364
 C1 0.925482 0.453335 0.90523  -0.424588636364
 C1 0.925607 0.952542 0.40521  -0.424588636364
 C1 0.925468 0.953288 0.9052  -0.424588636364
 C2 0.041132 0.483551 0.4665  0.00922136363636
 C2 0.041073 0.483664 0.96653  0.00922136363636
 C2 0.041135 0.983523 0.46653  0.00922136363636
 C2 0.041039 0.983698 0.96651  0.00922136363636
 C2 0.54113 0.483565 0.46652  0.00922136363636
 C2 0.541074 0.483647 0.96651  0.00922136363636
 C2 0.541182 0.983539 0.4665  0.00922136363636
 C2 0.541065 0.983708 0.9665  0.00922136363636
 O1 0.399823 0.497771 0.18337  -0.788548636364
 O1 0.399553 0.4988 0.68344  -0.788548636364
 O1 0.399798 0.997894 0.18338  -0.788548636364
 O1 0.399623 0.99884 0.68345  -0.788548636364
 O1 0.899801 0.497787 0.18338  -0.788548636364
 O1 0.89954 0.498802 0.68343  -0.788548636364
 O1 0.899782 0.99788 0.18338  -0.788548636364
 O1 0.899589 0.998845 0.68345  -0.788548636364
 O1 0.100739 0.314002 0.31672  -0.788548636364
 O1 0.100649 0.315079 0.81668  -0.788548636364
 O1 0.100625 0.813909 0.31669  -0.788548636364
 O1 0.100655 0.815041 0.81667  -0.788548636364
 O1 0.600752 0.314023 0.3167  -0.788548636364
 O1 0.600621 0.315071 0.81667  -0.788548636364
 O1 0.600605 0.813928 0.31669  -0.788548636364
 O1 0.600653 0.815035 0.81666  -0.788548636364
 O1 0.100591 0.002722 0.31666  -0.788548636364
 O1 0.100306 0.00387 0.8167  -0.788548636364
 O1 0.100639 0.502842 0.31667  -0.788548636364
 O1 0.100283 0.503928 0.81673  -0.788548636364
 O1 0.600556 0.00273 0.3166  -0.788548636364
 O1 0.600306 0.003852 0.8167  -0.788548636364
 O1 0.600616 0.50287 0.31667  -0.788548636364
 O1 0.600256 0.503918 0.81672  -0.788548636364
 O1 0.399897 0.186643 0.18329  -0.788548636364
 O1 0.399771 0.187465 0.68326  -0.788548636364
 O1 0.399869 0.68654 0.18326  -0.788548636364
 O1 0.399725 0.687474 0.68324  -0.788548636364
 O1 0.89988 0.186631 0.18328  -0.788548636364
 O1 0.89977 0.187479 0.6832  -0.788548636364
 O1 0.899867 0.686557 0.18327  -0.788548636364
 O1 0.899717 0.687467 0.68323  -0.788548636364
 O2 0.135872 0.115662 0.23055  -0.843278636364
 O2 0.135706 0.116602 0.73057  -0.843278636364
 O2 0.135876 0.615633 0.23053  -0.843278636364
 O2 0.135612 0.616608 0.73054  -0.843278636364
 O2 0.635865 0.115668 0.23054  -0.843278636364
 O2 0.635648 0.116617 0.73058  -0.843278636364
 O2 0.635847 0.615636 0.23052  -0.843278636364
 O2 0.635611 0.616609 0.73054  -0.843278636364
 O2 0.364763 0.384918 0.26949  -0.843278636364
 O2 0.36445 0.385961 0.76951  -0.843278636364
 O2 0.364671 0.884885 0.26947  -0.843278636364
 O2 0.364487 0.885943 0.76950  -0.843278636364
 O2 0.864758 0.384913 0.26947  -0.843278636364
 O2 0.864443 0.385972 0.76952  -0.843278636364
 O2 0.864652 0.884887 0.26947  -0.843278636364
 O2 0.864471 0.885941 0.76950  -0.843278636364
