#======================================================================

# CRYSTAL DATA

#----------------------------------------------------------------------

data_VESTA_phase_1


_pd_phase_name                         MOF
_cell_length_a                         18.30000
_cell_length_b                         17.82600
_cell_length_c                         15.73400
_cell_angle_alpha                      90.00000
_cell_angle_beta                       90.00000
_cell_angle_gamma                      90.00000
_symmetry_space_group_name_H-M         "P 1"
_symmetry_Int_Tables_number            1

loop_
_symmetry_equiv_pos_as_xyz
   "x, y, z"

loop_
   _atom_site_label
   _atom_site_fract_x
   _atom_site_fract_y
   _atom_site_fract_z
 _atom_site_charge
 Cd1 0.0 0.250006 0.04646  0.791301862745
 Cd1 0.500002 0.250006 0.04646  0.791301862745
 Cd1 0.0 0.750019 0.45353  0.791301862745
 Cd1 0.500001 0.750019 0.45353  0.791301862745
 Cd1 0.999999 0.750019 0.95352  0.791301862745
 Cd1 0.500001 0.750019 0.95352  0.791301862745
 Cd1 0.999999 0.250006 0.54645  0.791301862745
 Cd1 0.500001 0.250006 0.54645  0.791301862745
 H1 0.48732 0.42125 0.97794  0.0961768627451
 H1 0.987323 0.42125 0.97794  0.0961768627451
 H1 0.421436 0.50472 0.87628  0.0961768627451
 H1 0.92144 0.50472 0.87628  0.0961768627451
 H1 0.328523 0.30404 0.76462  0.0961768627451
 H1 0.828524 0.30404 0.76462  0.0961768627451
 H1 0.393686 0.230338 0.87639  0.0961768627451
 H1 0.893687 0.230337 0.87639  0.0961768627451
 H1 0.334167 0.435656 0.68441  0.0961768627451
 H1 0.834169 0.435655 0.68441  0.0961768627451
 H1 0.230365 0.45966 0.83585  0.0961768627451
 H1 0.730367 0.45966 0.83585  0.0961768627451
 H1 0.261747 0.362595 0.62725  0.0961768627451
 H1 0.76175 0.362594 0.62725  0.0961768627451
 H1 0.166019 0.284635 0.55910  0.0961768627451
 H1 0.666021 0.284635 0.55910  0.0961768627451
 H1 0.00717 0.356587 0.72750  0.0961768627451
 H1 0.507172 0.356588 0.72750  0.0961768627451
 H1 0.097707 0.431996 0.81001  0.0961768627451
 H1 0.59771 0.431996 0.81001  0.0961768627451
 H1 0.012678 0.078762 0.97794  0.0961768627451
 H1 0.51268 0.078762 0.97794  0.0961768627451
 H1 0.078564 0.995293 0.87628  0.0961768627451
 H1 0.578566 0.995292 0.87628  0.0961768627451
 H1 0.171478 0.195974 0.76462  0.0961768627451
 H1 0.67148 0.195974 0.76462  0.0961768627451
 H1 0.106312 0.269675 0.87639  0.0961768627451
 H1 0.606314 0.269675 0.87639  0.0961768627451
 H1 0.165831 0.064356 0.68441  0.0961768627451
 H1 0.665833 0.064355 0.68441  0.0961768627451
 H1 0.269635 0.040352 0.8358  0.0961768627451
 H1 0.769637 0.040352 0.8358  0.0961768627451
 H1 0.238252 0.137417 0.62725  0.0961768627451
 H1 0.738254 0.137416 0.62725  0.0961768627451
 H1 0.33398 0.215379 0.55910  0.0961768627451
 H1 0.833982 0.215379 0.55910  0.0961768627451
 H1 0.492829 0.143427 0.72750  0.0961768627451
 H1 0.992831 0.143427 0.72750  0.0961768627451
 H1 0.402294 0.068016 0.81001  0.0961768627451
 H1 0.902296 0.068016 0.81001  0.0961768627451
 H1 0.487323 0.578774 0.52203  0.0961768627451
 H1 0.987324 0.578773 0.52203  0.0961768627451
 H1 0.421435 0.495305 0.623  0.0961768627451
 H1 0.921436 0.495304 0.62369  0.0961768627451
 H1 0.328521 0.695987 0.73535  0.0961768627451
 H1 0.828523 0.695987 0.73535  0.0961768627451
 H1 0.393688 0.769687 0.6235  0.0961768627451
 H1 0.893691 0.769687 0.62359  0.0961768627451
 H1 0.33417 0.564366 0.81557  0.0961768627451
 H1 0.834173 0.564365 0.81557  0.0961768627451
 H1 0.230365 0.540364 0.66412  0.0961768627451
 H1 0.730367 0.540363 0.6641  0.0961768627451
 H1 0.261748 0.637428 0.87272  0.0961768627451
 H1 0.76175 0.637427 0.87272  0.0961768627451
 H1 0.166022 0.715393 0.94087  0.0961768627451
 H1 0.666024 0.715393 0.94087  0.0961768627451
 H1 0.007171 0.643441 0.77247  0.0961768627451
 H1 0.507173 0.643441 0.77247  0.0961768627451
 H1 0.097705 0.568028 0.68996  0.0961768627451
 H1 0.597707 0.568028 0.68996  0.0961768627451
 H1 0.012679 0.921264 0.52203  0.0961768627451
 H1 0.51268 0.921263 0.52203  0.0961768627451
 H1 0.078564 0.0 0.623  0.0961768627451
 H1 0.578566 0.0 0.623  0.0961768627451
 H1 0.171478 0.804052 0.73535  0.0961768627451
 H1 0.67148 0.804052 0.73535  0.0961768627451
 H1 0.106313 0.730351 0.6235  0.0961768627451
 H1 0.606316 0.730351 0.6235  0.0961768627451
 H1 0.165831 0.935671 0.81557  0.0961768627451
 H1 0.665833 0.93567 0.81557  0.0961768627451
 H1 0.269635 0.959674 0.66412  0.0961768627451
 H1 0.769637 0.959673 0.66412  0.0961768627451
 H1 0.238252 0.862609 0.87272  0.0961768627451
 H1 0.738254 0.862608 0.87272  0.0961768627451
 H1 0.333979 0.784646 0.94087  0.0961768627451
 H1 0.833982 0.784646 0.94087  0.0961768627451
 H1 0.492829 0.856599 0.77247  0.0961768627451
 H1 0.992832 0.856599 0.77247  0.0961768627451
 H1 0.402294 0.932009 0.68996  0.0961768627451
 H1 0.902296 0.932009 0.68996  0.0961768627451
 H1 0.012678 0.578773 0.02204  0.0961768627451
 H1 0.512682 0.578775 0.02204  0.0961768627451
 H1 0.078567 0.495304 0.12370  0.0961768627451
 H1 0.578566 0.495306 0.12370  0.0961768627451
 H1 0.17148 0.695987 0.23536  0.0961768627451
 H1 0.67148 0.695986 0.23536  0.0961768627451
 H1 0.106313 0.769686 0.12359  0.0961768627451
 H1 0.606317 0.769688 0.12359  0.0961768627451
 H1 0.16583 0.564364 0.31558  0.0961768627451
 H1 0.665835 0.56437 0.31557  0.0961768627451
 H1 0.269635 0.540363 0.16412  0.0961768627451
 H1 0.769638 0.540366 0.16413  0.0961768627451
 H1 0.238252 0.637427 0.37273  0.0961768627451
 H1 0.738255 0.637431 0.3727  0.0961768627451
 H1 0.333978 0.715393 0.44088  0.0961768627451
 H1 0.833983 0.715391 0.44088  0.0961768627451
 H1 0.49283 0.643441 0.27248  0.0961768627451
 H1 0.992833 0.643438 0.27248  0.0961768627451
 H1 0.402296 0.568027 0.18997  0.0961768627451
 H1 0.902296 0.568029 0.18997  0.0961768627451
 H1 0.487323 0.921264 0.02204  0.0961768627451
 H1 0.987326 0.921265 0.02204  0.0961768627451
 H1 0.421436 0.0 0.12370  0.0961768627451
 H1 0.921437 0.0 0.12370  0.0961768627451
 H1 0.328522 0.804051 0.23536  0.0961768627451
 H1 0.828524 0.804051 0.23536  0.0961768627451
 H1 0.393688 0.730351 0.12359  0.0961768627451
 H1 0.893691 0.730352 0.12359  0.0961768627451
 H1 0.33417 0.935671 0.31557  0.0961768627451
 H1 0.834173 0.935673 0.3155  0.0961768627451
 H1 0.230366 0.959674 0.16412  0.0961768627451
 H1 0.730368 0.959675 0.16412  0.0961768627451
 H1 0.261749 0.862609 0.3727  0.0961768627451
 H1 0.761751 0.862611 0.37273  0.0961768627451
 H1 0.166021 0.784646 0.44088  0.0961768627451
 H1 0.666024 0.784645 0.44088  0.0961768627451
 H1 0.007171 0.856599 0.27248  0.0961768627451
 H1 0.507174 0.856598 0.27248  0.0961768627451
 H1 0.097707 0.93201 0.18997  0.0961768627451
 H1 0.597708 0.932011 0.18997  0.0961768627451
 H1 0.01268 0.42125 0.47795  0.0961768627451
 H1 0.51268 0.421252 0.4779  0.0961768627451
 H1 0.078563 0.504719 0.37628  0.0961768627451
 H1 0.578568 0.504721 0.37628  0.0961768627451
 H1 0.171478 0.304039 0.2646  0.0961768627451
 H1 0.671482 0.304038 0.26463  0.0961768627451
 H1 0.106314 0.230337 0.37639  0.0961768627451
 H1 0.606314 0.230338 0.37639  0.0961768627451
 H1 0.165834 0.435654 0.18442  0.0961768627451
 H1 0.665833 0.435659 0.18441  0.0961768627451
 H1 0.269636 0.459659 0.33586  0.0961768627451
 H1 0.769638 0.459662 0.33586  0.0961768627451
 H1 0.238253 0.362594 0.12726  0.0961768627451
 H1 0.738255 0.362598 0.12726  0.0961768627451
 H1 0.333982 0.284635 0.0591  0.0961768627451
 H1 0.833982 0.284633 0.05911  0.0961768627451
 H1 0.492831 0.356587 0.22751  0.0961768627451
 H1 0.992832 0.356584 0.22751  0.0961768627451
 H1 0.402293 0.431995 0.31002  0.0961768627451
 H1 0.902297 0.431997 0.31002  0.0961768627451
 H1 0.487322 0.078762 0.47795  0.0961768627451
 H1 0.987323 0.078763 0.47795  0.0961768627451
 H1 0.421437 0.995292 0.37628  0.0961768627451
 H1 0.92144 0.995293 0.37628  0.0961768627451
 H1 0.328523 0.195973 0.2646  0.0961768627451
 H1 0.828525 0.195973 0.2646  0.0961768627451
 H1 0.393687 0.269675 0.37639  0.0961768627451
 H1 0.893688 0.269676 0.37639  0.0961768627451
 H1 0.334169 0.064356 0.18441  0.0961768627451
 H1 0.83417 0.064358 0.18442  0.0961768627451
 H1 0.230366 0.040352 0.33586  0.0961768627451
 H1 0.730367 0.040353 0.33586  0.0961768627451
 H1 0.261749 0.137417 0.12726  0.0961768627451
 H1 0.76175 0.137419 0.12726  0.0961768627451
 H1 0.166021 0.215379 0.05911  0.0961768627451
 H1 0.666022 0.215378 0.0591  0.0961768627451
 H1 0.007171 0.143427 0.22751  0.0961768627451
 H1 0.507173 0.143426 0.22751  0.0961768627451
 H1 0.097707 0.068017 0.31002  0.0961768627451
 H1 0.59771 0.068018 0.31002  0.0961768627451
 C1 0.450334 0.398205 0.93018  0.171899362745
 C1 0.950338 0.398205 0.93018  0.171899362745
 C2 0.414334 0.444029 0.87191  -0.214965012255
 C2 0.914334 0.444029 0.87191  -0.214965012255
 C3 0.368493 0.411419 0.81098  0.130421862745
 C3 0.868496 0.411418 0.8109  0.130421862745
 C2 0.362267 0.332778 0.81151  -0.214965012255
 C2 0.862267 0.332777 0.81151  -0.214965012255
 C1 0.399046 0.291226 0.87282  0.171899362745
 C1 0.89905 0.291225 0.87282  0.171899362745
 C4 0.323952 0.456441 0.74927  -0.0721681372549
 C4 0.823956 0.456444 0.74927  -0.0721681372549
 C4 0.240012 0.458359 0.76680  -0.0721681372549
 C4 0.740015 0.458358 0.76680  -0.0721681372549
 C3 0.187694 0.405661 0.72481  0.130421862745
 C3 0.687696 0.405659 0.72481  0.130421862745
 C2 0.206386 0.363001 0.65320  -0.214965012255
 C2 0.706388 0.363003 0.65320  -0.214965012255
 C1 0.152976 0.319926 0.61361  0.171899362745
 C1 0.652978 0.319924 0.61361  0.171899362745
 C1 0.064458 0.358781 0.70846  0.171899362745
 C1 0.56446 0.358779 0.70846  0.171899362745
 C2 0.115055 0.401475 0.7534  -0.214965012255
 C2 0.615056 0.401476 0.75343  -0.214965012255
 C1 0.049667 0.101809 0.93018  0.171899362745
 C1 0.549669 0.101809 0.93018  0.171899362745
 C2 0.085661 0.055984 0.87191  -0.214965012255
 C2 0.585662 0.055984 0.87191  -0.214965012255
 C3 0.131508 0.088592 0.81098  0.130421862745
 C3 0.63151 0.088592 0.81098  0.130421862745
 C2 0.137731 0.167233 0.81150  -0.214965012255
 C2 0.637733 0.167233 0.81150  -0.214965012255
 C1 0.100956 0.208786 0.87282  0.171899362745
 C1 0.600959 0.208786 0.87282  0.171899362745
 C4 0.176052 0.043579 0.74927  -0.0721681372549
 C4 0.676055 0.043579 0.74927  -0.0721681372549
 C4 0.259992 0.041651 0.7668  -0.0721681372549
 C4 0.759994 0.041651 0.7668  -0.0721681372549
 C3 0.312306 0.09435 0.72480  0.130421862745
 C3 0.812308 0.09435 0.72480  0.130421862745
 C2 0.293612 0.137017 0.65320  -0.214965012255
 C2 0.793614 0.137017 0.65320  -0.214965012255
 C1 0.347026 0.180085 0.61361  0.171899362745
 C1 0.847028 0.180085 0.61361  0.171899362745
 C1 0.435542 0.141228 0.70846  0.171899362745
 C1 0.935544 0.141228 0.70846  0.171899362745
 C2 0.384942 0.098541 0.75344  -0.214965012255
 C2 0.884944 0.098541 0.75344  -0.214965012255
 C1 0.450332 0.601823 0.56979  0.171899362745
 C1 0.950333 0.601824 0.56979  0.171899362745
 C2 0.414343 0.555997 0.62806  -0.214965012255
 C2 0.914347 0.555997 0.62806  -0.214965012255
 C3 0.368492 0.588603 0.68899  0.130421862745
 C3 0.868492 0.588602 0.6889  0.130421862745
 C2 0.36227 0.667244 0.68847  -0.214965012255
 C2 0.862274 0.667243 0.68847  -0.214965012255
 C1 0.39904 0.708798 0.62715  0.171899362745
 C1 0.899041 0.708798 0.62715  0.171899362745
 C4 0.323941 0.543599 0.75070  -0.0721681372549
 C4 0.823941 0.543602 0.75070  -0.0721681372549
 C4 0.240002 0.54166 0.73317  -0.0721681372549
 C4 0.740003 0.541659 0.73317  -0.0721681372549
 C3 0.187694 0.594362 0.7751  0.130421862745
 C3 0.687696 0.594361 0.77518  0.130421862745
 C2 0.206389 0.637035 0.84677  -0.214965012255
 C2 0.706391 0.637036 0.84677  -0.214965012255
 C1 0.152972 0.680097 0.88637  0.171899362745
 C1 0.652973 0.680095 0.88637  0.171899362745
 C1 0.064458 0.641238 0.79151  0.171899362745
 C1 0.564459 0.641236 0.79151  0.171899362745
 C2 0.11506 0.598556 0.74653  -0.214965012255
 C2 0.615063 0.598557 0.74653  -0.214965012255
 C1 0.049666 0.898216 0.56979  0.171899362745
 C1 0.549668 0.898216 0.56979  0.171899362745
 C2 0.085661 0.944042 0.62806  -0.214965012255
 C2 0.585664 0.944041 0.62806  -0.214965012255
 C3 0.131507 0.911434 0.68899  0.130421862745
 C3 0.631509 0.911433 0.68899  0.130421862745
 C2 0.137732 0.832793 0.68847  -0.214965012255
 C2 0.637734 0.832792 0.68847  -0.214965012255
 C1 0.100957 0.79124 0.62715  0.171899362745
 C1 0.600959 0.791239 0.62715  0.171899362745
 C4 0.176054 0.956446 0.75070  -0.0721681372549
 C4 0.676055 0.956447 0.75070  -0.0721681372549
 C4 0.259993 0.958376 0.73317  -0.0721681372549
 C4 0.759995 0.958375 0.73317  -0.0721681372549
 C3 0.312305 0.905674 0.77517  0.130421862745
 C3 0.812308 0.905674 0.77517  0.130421862745
 C2 0.293612 0.863009 0.84677  -0.214965012255
 C2 0.793615 0.863009 0.84677  -0.214965012255
 C1 0.347026 0.819939 0.88636  0.171899362745
 C1 0.847028 0.819939 0.88636  0.171899362745
 C1 0.435542 0.858797 0.79151  0.171899362745
 C1 0.935544 0.858797 0.79151  0.171899362745
 C2 0.384942 0.901486 0.74654  -0.214965012255
 C2 0.884944 0.901486 0.74654  -0.214965012255
 C1 0.049671 0.601824 0.06979  0.171899362745
 C1 0.549666 0.601821 0.06980  0.171899362745
 C2 0.085654 0.555996 0.12807  -0.214965012255
 C2 0.58567 0.555996 0.1280  -0.214965012255
 C3 0.131511 0.588601 0.18899  0.130421862745
 C3 0.631508 0.588606 0.18900  0.130421862745
 C2 0.137728 0.667243 0.18848  -0.214965012255
 C2 0.637738 0.667247 0.18847  -0.214965012255
 C1 0.100964 0.708797 0.12716  0.171899362745
 C1 0.600955 0.7088 0.12716  0.171899362745
 C4 0.176062 0.543603 0.25071  -0.0721681372549
 C4 0.676053 0.543585 0.2507  -0.0721681372549
 C4 0.26 0.541658 0.23317  -0.0721681372549
 C4 0.759993 0.541664 0.23318  -0.0721681372549
 C3 0.312306 0.59436 0.27518  0.130421862745
 C3 0.812308 0.594366 0.27517  0.130421862745
 C2 0.293612 0.637036 0.34678  -0.214965012255
 C2 0.793616 0.637024 0.34678  -0.214965012255
 C1 0.347029 0.680095 0.38637  0.171899362745
 C1 0.847027 0.680101 0.38637  0.171899362745
 C1 0.435543 0.641235 0.29152  0.171899362745
 C1 0.935545 0.641245 0.29151  0.171899362745
 C2 0.384939 0.598556 0.24654  -0.214965012255
 C2 0.884947 0.598549 0.2465  -0.214965012255
 C1 0.450334 0.898216 0.06980  0.171899362745
 C1 0.950334 0.898215 0.06979  0.171899362745
 C2 0.41434 0.944041 0.12807  -0.214965012255
 C2 0.914348 0.944042 0.12807  -0.214965012255
 C3 0.368493 0.911434 0.18900  0.130421862745
 C3 0.868493 0.911436 0.18899  0.130421862745
 C2 0.362269 0.832793 0.1884  -0.214965012255
 C2 0.862275 0.832795 0.18848  -0.214965012255
 C1 0.399044 0.791239 0.12716  0.171899362745
 C1 0.899041 0.791241 0.12716  0.171899362745
 C4 0.323946 0.956444 0.2507  -0.0721681372549
 C4 0.823943 0.956437 0.25071  -0.0721681372549
 C4 0.240006 0.958376 0.23317  -0.0721681372549
 C4 0.740005 0.958379 0.23317  -0.0721681372549
 C3 0.187695 0.905676 0.27518  0.130421862745
 C3 0.687697 0.905678 0.27518  0.130421862745
 C2 0.206389 0.863007 0.34678  -0.214965012255
 C2 0.706391 0.863003 0.34678  -0.214965012255
 C1 0.152974 0.819941 0.38637  0.171899362745
 C1 0.652974 0.819943 0.38637  0.171899362745
 C1 0.064458 0.858798 0.29152  0.171899362745
 C1 0.56446 0.858802 0.29152  0.171899362745
 C2 0.115059 0.901484 0.24654  -0.214965012255
 C2 0.615064 0.901482 0.24654  -0.214965012255
 C1 0.049664 0.398205 0.43018  0.171899362745
 C1 0.549672 0.398203 0.43019  0.171899362745
 C2 0.085669 0.444029 0.37192  -0.214965012255
 C2 0.585658 0.444029 0.3719  -0.214965012255
 C3 0.131506 0.411417 0.31098  0.130421862745
 C3 0.631513 0.411423 0.31099  0.130421862745
 C2 0.137736 0.332777 0.31152  -0.214965012255
 C2 0.63773 0.332781 0.3115  -0.214965012255
 C1 0.100951 0.291225 0.37283  0.171899362745
 C1 0.600964 0.291228 0.37283  0.171899362745
 C4 0.176046 0.456445 0.24928  -0.0721681372549
 C4 0.676059 0.456427 0.24928  -0.0721681372549
 C4 0.259986 0.458357 0.26681  -0.0721681372549
 C4 0.759998 0.458363 0.26681  -0.0721681372549
 C3 0.312307 0.405659 0.22481  0.130421862745
 C3 0.812309 0.405665 0.22480  0.130421862745
 C2 0.293614 0.363003 0.15320  -0.214965012255
 C2 0.793614 0.362991 0.15321  -0.214965012255
 C1 0.347024 0.319924 0.11362  0.171899362745
 C1 0.847031 0.31993 0.11361  0.171899362745
 C1 0.435543 0.358779 0.20847  0.171899362745
 C1 0.935545 0.358788 0.20847  0.171899362745
 C2 0.384946 0.401475 0.25344  -0.214965012255
 C2 0.884942 0.401469 0.25345  -0.214965012255
 C1 0.450334 0.101809 0.43019  0.171899362745
 C1 0.950339 0.101808 0.43018  0.171899362745
 C2 0.414339 0.055984 0.37192  -0.214965012255
 C2 0.914335 0.055984 0.37192  -0.214965012255
 C3 0.368493 0.088593 0.31099  0.130421862745
 C3 0.868497 0.088595 0.31098  0.130421862745
 C2 0.362269 0.167234 0.31151  -0.214965012255
 C2 0.862268 0.167235 0.3115  -0.214965012255
 C1 0.399044 0.208786 0.37283  0.171899362745
 C1 0.899051 0.208788 0.37283  0.171899362745
 C4 0.323949 0.043577 0.24928  -0.0721681372549
 C4 0.823956 0.04357 0.24928  -0.0721681372549
 C4 0.24001 0.041651 0.26681  -0.0721681372549
 C4 0.740015 0.041654 0.26681  -0.0721681372549
 C3 0.187695 0.094351 0.22481  0.130421862745
 C3 0.687697 0.094354 0.22481  0.130421862745
 C2 0.206388 0.137015 0.1532  -0.214965012255
 C2 0.706389 0.137011 0.15320  -0.214965012255
 C1 0.152975 0.180086 0.1136  0.171899362745
 C1 0.652979 0.180089 0.11362  0.171899362745
 C1 0.064458 0.14123 0.20847  0.171899362745
 C1 0.564461 0.141234 0.20847  0.171899362745
 C2 0.115058 0.09854 0.25344  -0.214965012255
 C2 0.615057 0.098537 0.25344  -0.214965012255
 N1 0.442609 0.32307 0.93181  -0.336098137255
 N1 0.94261 0.32307 0.93181  -0.336098137255
 N1 0.082738 0.318426 0.63928  -0.336098137255
 N1 0.58274 0.318426 0.6392  -0.336098137255
 N1 0.05739 0.176945 0.93181  -0.336098137255
 N1 0.557392 0.176945 0.93181  -0.336098137255
 N1 0.417262 0.181589 0.63928  -0.336098137255
 N1 0.917264 0.181589 0.63928  -0.336098137255
 N1 0.44261 0.676959 0.5681  -0.336098137255
 N1 0.942613 0.67696 0.56817  -0.336098137255
 N1 0.082738 0.681603 0.86069  -0.336098137255
 N1 0.582739 0.681603 0.86069  -0.336098137255
 N1 0.057391 0.823081 0.56816  -0.336098137255
 N1 0.557393 0.823081 0.56816  -0.336098137255
 N1 0.417262 0.818437 0.86069  -0.336098137255
 N1 0.917264 0.818437 0.86069  -0.336098137255
 N1 0.057391 0.67696 0.06817  -0.336098137255
 N1 0.557395 0.676956 0.06817  -0.336098137255
 N1 0.417263 0.681603 0.360  -0.336098137255
 N1 0.917264 0.681599 0.36070  -0.336098137255
 N1 0.44261 0.82308 0.06817  -0.336098137255
 N1 0.942614 0.823079 0.06817  -0.336098137255
 N1 0.082739 0.818437 0.36070  -0.336098137255
 N1 0.58274 0.818435 0.36070  -0.336098137255
 N1 0.057392 0.323071 0.43182  -0.336098137255
 N1 0.557391 0.323066 0.43181  -0.336098137255
 N1 0.417262 0.318426 0.13928  -0.336098137255
 N1 0.917265 0.318422 0.13929  -0.336098137255
 N1 0.44261 0.176944 0.43182  -0.336098137255
 N1 0.942611 0.176943 0.43182  -0.336098137255
 N1 0.082739 0.181588 0.13928  -0.336098137255
 N1 0.582741 0.181587 0.13928  -0.336098137255
 Cl1 0.100193 0.356219 0.05351  -0.629468137255
 Cl1 0.600195 0.356219 0.05351  -0.629468137255
 Cl1 0.399809 0.143793 0.05351  -0.629468137255
 Cl1 0.89981 0.143793 0.05351  -0.629468137255
 Cl1 0.100193 0.643806 0.44648  -0.629468137255
 Cl1 0.600195 0.643806 0.44648  -0.629468137255
 Cl1 0.399808 0.856232 0.44648  -0.629468137255
 Cl1 0.89981 0.856232 0.4464  -0.629468137255
 Cl1 0.399808 0.643806 0.94647  -0.629468137255
 Cl1 0.89981 0.643806 0.94647  -0.629468137255
 Cl1 0.100192 0.856232 0.94647  -0.629468137255
 Cl1 0.600194 0.856232 0.94647  -0.629468137255
 Cl1 0.399807 0.356219 0.55350  -0.629468137255
 Cl1 0.89981 0.356219 0.55350  -0.629468137255
 Cl1 0.100192 0.143794 0.55350  -0.629468137255
 Cl1 0.600194 0.143793 0.55350  -0.629468137255
