#======================================================================

# CRYSTAL DATA

#----------------------------------------------------------------------

data_VESTA_phase_1


_pd_phase_name                         MOF
_cell_length_a                         12.36500
_cell_length_b                         20.16300
_cell_length_c                         20.18000
_cell_angle_alpha                      102.30200
_cell_angle_beta                       94.91200
_cell_angle_gamma                      94.69600
_symmetry_space_group_name_H-M         "P 1"
_symmetry_Int_Tables_number            1

loop_
_symmetry_equiv_pos_as_xyz
   "x, y, z"

loop_
   _atom_site_label
   _atom_site_fract_x
   _atom_site_fract_y
   _atom_site_fract_z
 _atom_site_charge
 Zn1 0.615782 0.072952 0.55951  0.886059558824
 Zn1 0.805175 0.01648 0.52665  0.886059558824
 Zn2 0.412007 0.333282 0.60583  0.909294558824
 Zn2 0.504891 0.48363 0.7553  0.909294558824
 Zn1 0.115985 0.560457 0.07286  0.886059558824
 Zn1 0.305212 0.525942 0.01643  0.886059558824
 Zn2 0.912174 0.605808 0.33317  0.909294558824
 Zn2 0.005034 0.755332 0.48350  0.909294558824
 H1 0.498254 0.199551 0.53473  0.0952044546569
 H1 0.565188 0.218511 0.61940  0.0952044546569
 H1 0.538042 0.139719 0.69346  0.0952044546569
 H1 0.452612 0.06168 0.66272  0.0952044546569
 H1 0.362568 0.034853 0.54802  0.0952044546569
 H1 0.382826 0.092679 0.49310  0.0952044546569
 H1 0.314493 0.24745 0.70115  0.0952044546569
 H1 0.458664 0.246056 0.71573  0.0952044546569
 H1 0.19923 0.141422 0.65926  0.0952044546569
 H1 0.258493 0.062414 0.64193  0.0952044546569
 H1 0.303686 0.200153 0.51526  0.0952044546569
 H1 0.224408 0.220185 0.58590  0.0952044546569
 H1 0.858826 0.87194 0.46533  0.0952044546569
 H1 0.914181 0.888523 0.55247  0.0952044546569
 H1 0.984575 0.030667 0.43247  0.0952044546569
 H1 0.900348 0.953339 0.39585  0.0952044546569
 H1 0.028123 0.994348 0.60216  0.0952044546569
 H1 0.05938 0.054026 0.55079  0.0952044546569
 H1 0.979394 0.846462 0.37561  0.0952044546569
 H1 0.121839 0.844469 0.39777  0.0952044546569
 H1 0.176388 0.028366 0.46334  0.0952044546569
 H1 0.234752 0.948698 0.44792  0.0952044546569
 H1 0.195614 0.86807 0.51663  0.0952044546569
 H1 0.106031 0.886355 0.58  0.0952044546569
 H1 0.668197 0.849128 0.35131  0.0952044546569
 H1 0.268659 0.864899 0.30965  0.0952044546569
 H1 0.385949 0.952533 0.39836  0.0952044546569
 H1 0.651626 0.744851 0.25814  0.0952044546569
 H1 0.534893 0.657513 0.1678  0.0952044546569
 H1 0.250622 0.756648 0.21955  0.0952044546569
 H1 0.927631 0.149744 0.39946  0.0952044546569
 H1 0.98361 0.246861 0.34721  0.0952044546569
 H1 0.647852 0.247115 0.46788  0.0952044546569
 H1 0.951486 0.361216 0.3241  0.0952044546569
 H1 0.683203 0.462997 0.40475  0.0952044546569
 H1 0.620172 0.361725 0.44952  0.0952044546569
 H1 0.124409 0.337421 0.62359  0.0952044546569
 H1 0.982891 0.510096 0.80226  0.0952044546569
 H1 0.181622 0.506826 0.79705  0.0952044546569
 H1 0.933568 0.293809 0.57351  0.0952044546569
 H1 0.734843 0.297219 0.5784  0.0952044546569
 H1 0.791838 0.461023 0.75703  0.0952044546569
 H1 0.775089 0.84236 0.62081  0.0952044546569
 H1 0.429557 0.839519 0.73168  0.0952044546569
 H1 0.487867 0.936648 0.68015  0.0952044546569
 H1 0.800852 0.72741 0.63896  0.0952044546569
 H1 0.735452 0.625878 0.68276  0.0952044546569
 H1 0.461814 0.726283 0.75677  0.0952044546569
 H1 0.999074 0.534866 0.19934  0.0952044546569
 H1 0.065463 0.619661 0.21862  0.0952044546569
 H1 0.037366 0.69402 0.14009  0.0952044546569
 H1 0.951902 0.663373 0.06196  0.0952044546569
 H1 0.862658 0.548476 0.03478  0.0952044546569
 H1 0.883651 0.493389 0.09243  0.0952044546569
 H1 0.81406 0.701116 0.24743  0.0952044546569
 H1 0.958145 0.715893 0.24623  0.0952044546569
 H1 0.698731 0.659325 0.14130  0.0952044546569
 H1 0.75787 0.642262 0.06242  0.0952044546569
 H1 0.80464 0.515172 0.19975  0.0952044546569
 H1 0.724809 0.585713 0.21982  0.0952044546569
 H1 0.358781 0.465144 0.87171  0.0952044546569
 H1 0.413494 0.552387 0.88856  0.0952044546569
 H1 0.485336 0.432046 0.03041  0.0952044546569
 H1 0.40117 0.395444 0.95294  0.0952044546569
 H1 0.527306 0.601999 0.99449  0.0952044546569
 H1 0.559207 0.550496 0.05406  0.0952044546569
 H1 0.480051 0.375552 0.84628  0.0952044546569
 H1 0.62233 0.397885 0.84449  0.0952044546569
 H1 0.676903 0.463198 0.02842  0.0952044546569
 H1 0.735189 0.448018 0.94886  0.0952044546569
 H1 0.695232 0.516892 0.86841  0.0952044546569
 H1 0.605125 0.58216 0.88666  0.0952044546569
 H1 0.167942 0.351358 0.84908  0.0952044546569
 H1 0.768716 0.309918 0.86487  0.0952044546569
 H1 0.886002 0.398879 0.95223  0.0952044546569
 H1 0.151283 0.258021 0.74500  0.0952044546569
 H1 0.03456 0.16769 0.65777  0.0952044546569
 H1 0.750499 0.219594 0.75673  0.0952044546569
 H1 0.428558 0.399111 0.15032  0.0952044546569
 H1 0.484102 0.346932 0.24772  0.0952044546569
 H1 0.147659 0.467629 0.24607  0.0952044546569
 H1 0.451444 0.324105 0.3617  0.0952044546569
 H1 0.182248 0.404836 0.46221  0.0952044546569
 H1 0.119398 0.449418 0.36064  0.0952044546569
 H1 0.624602 0.623384 0.33734  0.0952044546569
 H1 0.483017 0.802358 0.50969  0.0952044546569
 H1 0.681747 0.797205 0.5063  0.0952044546569
 H1 0.433773 0.573156 0.2938  0.0952044546569
 H1 0.235051 0.578007 0.29739  0.0952044546569
 H1 0.292003 0.757011 0.46075  0.0952044546569
 H1 0.275252 0.621065 0.84291  0.0952044546569
 H1 0.929525 0.732482 0.83905  0.0952044546569
 H1 0.987945 0.681099 0.93642  0.0952044546569
 H1 0.301283 0.63915 0.72818  0.0952044546569
 H1 0.235829 0.682802 0.626  0.0952044546569
 H1 0.961821 0.75728 0.72588  0.0952044546569
 C1 0.490478 0.194481 0.58715  0.125502058824
 C1 0.46266 0.11596 0.66168  0.125502058824
 C1 0.373316 0.088858 0.54580  0.125502058824
 C1 0.384227 0.221114 0.68338  0.125502058824
 C1 0.270214 0.11673 0.64085  0.125502058824
 C1 0.294414 0.194314 0.56742  0.125502058824
 C1 0.930036 0.894904 0.50149  0.125502058824
 C1 0.972098 0.976077 0.43181  0.125502058824
 C1 0.045809 0.999652 0.55104  0.125502058824
 C1 0.050064 0.870495 0.4120  0.125502058824
 C1 0.162056 0.973752 0.4625  0.125502058824
 C1 0.123605 0.893769 0.53150  0.125502058824
 C2 0.600901 0.956965 0.43692  0.676040808824
 C3 0.534021 0.905324 0.38049  -0.0414557536765
 C4 0.580983 0.852415 0.34152  -0.0885085661765
 C3 0.517572 0.802279 0.28990  -0.0414557536765
 C3 0.402083 0.805917 0.27863  -0.0414557536765
 C4 0.356018 0.861139 0.31886  -0.0885085661765
 C4 0.420252 0.909567 0.36801  -0.0885085661765
 C4 0.564136 0.747857 0.24889  -0.0885085661765
 C4 0.500392 0.699651 0.1994  -0.0885085661765
 C3 0.386033 0.702473 0.18851  -0.0414557536765
 C4 0.338489 0.754798 0.22795  -0.0885085661765
 C2 0.318699 0.648039 0.13494  0.676040808824
 C2 0.754901 0.136066 0.47162  0.676040808824
 C3 0.784608 0.193057 0.4375  -0.0414557536765
 C4 0.879797 0.193104 0.402  -0.0885085661765
 C4 0.910441 0.246819 0.3738  -0.0885085661765
 C3 0.848567 0.30381 0.37904  -0.0414557536765
 C3 0.752383 0.304017 0.41430  -0.0414557536765
 C4 0.721658 0.247349 0.44203  -0.0885085661765
 C4 0.879412 0.360754 0.35171  -0.0885085661765
 C3 0.820814 0.417132 0.36108  -0.0414557536765
 C4 0.726807 0.417636 0.39711  -0.0885085661765
 C4 0.692463 0.361954 0.422  -0.0885085661765
 C2 0.860477 0.478384 0.33583  0.676040808824
 C2 0.283968 0.417361 0.70947  0.676040808824
 C3 0.164243 0.420421 0.71061  -0.0414557536765
 C4 0.092425 0.374545 0.66263  -0.0885085661765
 C3 0.978411 0.376067 0.66299  -0.0414557536765
 C3 0.937867 0.424973 0.71538  -0.0414557536765
 C4 0.013516 0.472191 0.76318  -0.0885085661765
 C4 0.123978 0.470526 0.76053  -0.0885085661765
 C4 0.902888 0.330379 0.61376  -0.0885085661765
 C4 0.792438 0.332043 0.61633  -0.0885085661765
 C3 0.752093 0.378907 0.66916  -0.0414557536765
 C4 0.823867 0.424387 0.71758  -0.0885085661765
 C2 0.632309 0.380007 0.67179  0.676040808824
 C2 0.666389 0.952822 0.61416  0.676040808824
 C3 0.63523 0.895222 0.64709  -0.0414557536765
 C4 0.699145 0.841539 0.64445  -0.0885085661765
 C3 0.666362 0.784387 0.67103  -0.0414557536765
 C3 0.567709 0.783891 0.70381  -0.0414557536765
 C4 0.504725 0.840206 0.70704  -0.0885085661765
 C4 0.536844 0.893998 0.67876  -0.0885085661765
 C4 0.726844 0.726743 0.66472  -0.0885085661765
 C4 0.691136 0.670943 0.68917  -0.0885085661765
 C3 0.595009 0.671015 0.72319  -0.0414557536765
 C4 0.535521 0.726976 0.730  -0.0885085661765
 C2 0.554377 0.610065 0.74861  0.676040808824
 C1 0.990884 0.587357 0.19445  0.125502058824
 C1 0.962133 0.662167 0.11618  0.125502058824
 C1 0.873652 0.546134 0.0887  0.125502058824
 C1 0.883866 0.683484 0.22116  0.125502058824
 C1 0.769805 0.641054 0.11668  0.125502058824
 C1 0.794911 0.56738 0.19402  0.125502058824
 C1 0.429791 0.501362 0.89482  0.125502058824
 C1 0.472709 0.431474 0.97583  0.125502058824
 C1 0.545459 0.55086 0.99973  0.125502058824
 C1 0.550508 0.412057 0.87043  0.125502058824
 C1 0.662421 0.462483 0.97381  0.125502058824
 C1 0.623141 0.531628 0.89400  0.125502058824
 C2 0.100889 0.437351 0.95661  0.676040808824
 C3 0.033927 0.380818 0.9051  -0.0414557536765
 C4 0.080789 0.34165 0.85235  -0.0885085661765
 C3 0.017358 0.289951 0.80231  -0.0414557536765
 C3 0.901921 0.278728 0.80593  -0.0414557536765
 C4 0.855985 0.319103 0.86107  -0.0885085661765
 C4 0.920225 0.368398 0.90936  -0.0885085661765
 C4 0.063848 0.24883 0.74798  -0.0885085661765
 C4 0.0 0.199318 0.6998  -0.0885085661765
 C3 0.885772 0.188436 0.70262  -0.0414557536765
 C4 0.838311 0.227962 0.75488  -0.0885085661765
 C2 0.818503 0.134812 0.64819  0.676040808824
 C2 0.255787 0.471155 0.13557  0.676040808824
 C3 0.28501 0.437213 0.19281  -0.0414557536765
 C4 0.380403 0.402367 0.19340  -0.0885085661765
 C4 0.4108 0.373599 0.24726  -0.0885085661765
 C3 0.3485 0.378879 0.3038  -0.0414557536765
 C3 0.252129 0.414155 0.3035  -0.0414557536765
 C4 0.22161 0.441775 0.24673  -0.0885085661765
 C4 0.379229 0.351651 0.36095  -0.0885085661765
 C3 0.320351 0.361098 0.41703  -0.0414557536765
 C4 0.226139 0.397137 0.41708  -0.0885085661765
 C4 0.191881 0.42202 0.36123  -0.0885085661765
 C2 0.360166 0.3359 0.47837  0.676040808824
 C2 0.784077 0.709514 0.41712  0.676040808824
 C3 0.664363 0.710577 0.42017  -0.0414557536765
 C4 0.592586 0.662485 0.37438  -0.0885085661765
 C3 0.478604 0.662822 0.37594  -0.0414557536765
 C3 0.43804 0.715312 0.42474  -0.0414557536765
 C4 0.513636 0.763218 0.47186  -0.0885085661765
 C4 0.624099 0.760597 0.47017  -0.0885085661765
 C4 0.403088 0.613484 0.33037  -0.0885085661765
 C4 0.292633 0.616031 0.33208  -0.0885085661765
 C3 0.252254 0.668974 0.37883  -0.0414557536765
 C4 0.324029 0.717487 0.42419  -0.0885085661765
 C2 0.13247 0.671619 0.37999  0.676040808824
 C2 0.166464 0.614753 0.95304  0.676040808824
 C3 0.135365 0.647702 0.89538  -0.0414557536765
 C4 0.199305 0.64485 0.84188  -0.0885085661765
 C3 0.166568 0.671431 0.78466  -0.0414557536765
 C3 0.067837 0.704335 0.78386  -0.0414557536765
 C4 0.004798 0.707764 0.83999  -0.0885085661765
 C4 0.036948 0.679553 0.893  -0.0885085661765
 C4 0.227175 0.664964 0.72723  -0.0885085661765
 C4 0.191436 0.689325 0.67131  -0.0885085661765
 C3 0.0952 0.723425 0.67107  -0.0414557536765
 C4 0.035617 0.731214 0.72683  -0.0885085661765
 C2 0.054448 0.748759 0.61002  0.676040808824
 N1 0.476323 0.121007 0.58938  -0.302186691176
 N1 0.395442 0.229695 0.61194  -0.302186691176
 N2 0.368727 0.149328 0.68604  -0.396870441176
 N2 0.278357 0.122231 0.56946  -0.396870441176
 N1 0.947407 0.968952 0.50185  -0.302186691176
 N1 0.027547 0.859827 0.48137  -0.302186691176
 N2 0.068645 0.942809 0.41202  -0.396870441176
 N2 0.142945 0.966305 0.53203  -0.396870441176
 N1 0.976448 0.589808 0.12105  -0.302186691176
 N1 0.895722 0.611972 0.22958  -0.302186691176
 N2 0.868083 0.68633 0.14946  -0.396870441176
 N2 0.778602 0.569599 0.12202  -0.396870441176
 N1 0.447405 0.501557 0.96880  -0.302186691176
 N1 0.527371 0.481411 0.85987  -0.302186691176
 N2 0.569319 0.411873 0.94268  -0.396870441176
 N2 0.642689 0.532024 0.96648  -0.396870441176
 O1 0.550637 0.003789 0.4702  -0.590984012605
 O1 0.701974 0.94992 0.44822  -0.590984012605
 O1 0.371032 0.608109 0.09450  -0.590984012605
 O1 0.215222 0.64494 0.13393  -0.590984012605
 O1 0.671582 0.14079 0.50496  -0.590984012605
 O1 0.815835 0.087465 0.46648  -0.590984012605
 O2 0.926428 0.474957 0.29157  -0.608685441176
 O1 0.823888 0.535652 0.36390  -0.590984012605
 O1 0.595991 0.995117 0.60972  -0.590984012605
 O1 0.345182 0.472032 0.73776  -0.590984012605
 O1 0.318354 0.360829 0.68254  -0.590984012605
 O1 0.571423 0.352873 0.61657  -0.590984012605
 O1 0.597233 0.406019 0.72826  -0.590984012605
 O1 0.759404 0.955306 0.59141  -0.590984012605
 O1 0.592569 0.552805 0.72240  -0.590984012605
 O2 0.486272 0.613854 0.79166  -0.608685441176
 O1 0.050519 0.471765 0.00266  -0.590984012605
 O1 0.202319 0.447622 0.95018  -0.590984012605
 O1 0.871153 0.094645 0.60813  -0.590984012605
 O1 0.715022 0.133406 0.64512  -0.590984012605
 O1 0.17136 0.503679 0.13907  -0.590984012605
 O1 0.318365 0.466675 0.08798  -0.590984012605
 O2 0.426252 0.291558 0.47505  -0.608685441176
 O1 0.323592 0.364053 0.53552  -0.590984012605
 O1 0.096508 0.611307 0.99561  -0.590984012605
 O1 0.845386 0.737809 0.471  -0.590984012605
 O1 0.818371 0.682629 0.36063  -0.590984012605
 O1 0.071719 0.616394 0.35284  -0.590984012605
 O1 0.097258 0.728132 0.40602  -0.590984012605
 O1 0.258911 0.591049 0.95531  -0.590984012605
 O1 0.092679 0.722412 0.55291  -0.590984012605
 O2 0.986236 0.791913 0.61366  -0.608685441176
