#======================================================================

# CRYSTAL DATA

#----------------------------------------------------------------------

data_VESTA_phase_1


_pd_phase_name                         MOF
_cell_length_a                         10.81600
_cell_length_b                         15.94000
_cell_length_c                         18.49700
_cell_angle_alpha                      114.39300
_cell_angle_beta                       107.11900
_cell_angle_gamma                      93.92200
_symmetry_space_group_name_H-M         "P 1"
_symmetry_Int_Tables_number            1

loop_
_symmetry_equiv_pos_as_xyz
   "x, y, z"

loop_
   _atom_site_label
   _atom_site_fract_x
   _atom_site_fract_y
   _atom_site_fract_z
 _atom_site_charge
 Cd1 0.070591 0.61723 0.5739  1.15748309859
 Cd2 0.192566 0.51112 0.36795  1.07424309859
 Cd1 0.929403 0.382766 0.42617  1.15748309859
 Cd2 0.807413 0.488922 0.63219  1.07424309859
 H1 0.568218 0.315162 0.62430  0.100574348592
 H1 0.411347 0.49766 0.03734  0.100574348592
 H1 0.662042 0.362297 0.92738  0.100574348592
 H1 0.688656 0.295059 0.83072  0.100574348592
 H1 0.128257 0.979646 0.6699  0.100574348592
 H1 0.426621 0.363061 0.8365  0.100574348592
 H1 0.318617 0.251755 0.75829  0.100574348592
 H1 0.807022 0.17425 0.13733  0.100574348592
 H1 0.256289 0.368773 0.72861  0.100574348592
 H1 0.728772 0.12711 0.98131  0.100574348592
 H1 0.528173 0.987374 0.6701  0.100574348592
 H1 0.062978 0.810458 0.56234  0.100574348592
 H1 0.840219 0.418184 0.03745  0.100574348592
 H1 0.923337 0.463425 0.19144  0.100574348592
 H1 0.507537 0.207617 0.9401  0.100574348592
 H1 0.344313 0.199782 0.87396  0.100574348592
 H1 0.47029 0.385742 0.52920  0.100574348592
 H1 0.376814 0.217911 0.01866  0.100574348592
 H1 0.46125 0.819882 0.56238  0.100574348592
 H1 0.288115 0.269115 0.13634  0.100574348592
 H1 0.556988 0.103788 0.80467  0.100574348592
 H1 0.526959 0.140029 0.72242  0.100574348592
 H1 0.316765 0.546609 0.15451  0.100574348592
 H1 0.158881 0.436803 0.63280  0.100574348592
 H1 0.43176 0.684847 0.37582  0.100574348592
 H1 0.588652 0.502383 0.9628  0.100574348592
 H1 0.337928 0.637737 0.07275  0.100574348592
 H1 0.3113 0.704982 0.1694  0.100574348592
 H1 0.871701 0.020383 0.3302  0.100574348592
 H1 0.573355 0.636988 0.16359  0.100574348592
 H1 0.681351 0.748298 0.24184  0.100574348592
 H1 0.193038 0.825754 0.86278  0.100574348592
 H1 0.743685 0.631274 0.27151  0.100574348592
 H1 0.271256 0.872904 0.  0.100574348592
 H1 0.471791 0.0 0.32996  0.100574348592
 H1 0.937007 0.189569 0.43778  0.100574348592
 H1 0.159726 0.581844 0.96267  0.100574348592
 H1 0.076631 0.536592 0.80868  0.100574348592
 H1 0.492426 0.792422 0.05999  0.100574348592
 H1 0.65565 0.800257 0.12617  0.100574348592
 H1 0.529703 0.614252 0.47090  0.100574348592
 H1 0.623121 0.782114 0.98145  0.100574348592
 H1 0.538739 0.180178 0.43775  0.100574348592
 H1 0.711818 0.730904 0.86377  0.100574348592
 H1 0.442957 0.89625 0.19546  0.100574348592
 H1 0.473006 0.860014 0.27771  0.100574348592
 H1 0.683235 0.453429 0.84565  0.100574348592
 H1 0.841105 0.563226 0.36730  0.100574348592
 C1 0.478144 0.341313 0.62523  -0.123953776408
 C1 0.382756 0.44832 0.05946  -0.123953776408
 C2 0.65102 0.290712 0.87832  0.0622805985915
 C1 0.200524 0.943549 0.64635  -0.123953776408
 C2 0.422712 0.29102 0.79067  0.0622805985915
 C1 0.814568 0.226763 0.11460  -0.123953776408
 C1 0.303251 0.371272 0.68480  -0.123953776408
 C1 0.770318 0.200623 0.02835  -0.123953776408
 C1 0.426228 0.949435 0.64712  -0.123953776408
 C1 0.165112 0.849238 0.58689  -0.123953776408
 C1 0.831473 0.364669 0.05896  -0.123953776408
 C1 0.878294 0.390067 0.14543  -0.123953776408
 C2 0.447613 0.240161 0.90397  0.0622805985915
 C1 0.423699 0.380991 0.57258  -0.123953776408
 C1 0.364006 0.290022 0.04772  -0.123953776408
 C3 0.502974 0.239903 0.83626  -0.0366469014085
 C4 0.331662 0.994241 0.67716  0.311408098592
 C5 0.295904 0.410693 0.15206  -0.217571901408
 C1 0.388917 0.855117 0.58658  -0.123953776408
 C4 0.417652 0.335848 0.68121  0.311408098592
 C6 0.246405 0.442191 0.22430  0.679643098592
 C4 0.775716 0.269752 0.0002  0.311408098592
 C1 0.313688 0.318478 0.11352  -0.123953776408
 C2 0.493311 0.138252 0.77257  0.0622805985915
 C5 0.867991 0.321952 0.17420  -0.217571901408
 C6 0.246383 0.454529 0.51612  0.679643098592
 C5 0.30739 0.415299 0.57425  -0.217571901408
 C1 0.33046 0.475038 0.12376  -0.123953776408
 C1 0.248368 0.409983 0.63088  -0.123953776408
 C4 0.399617 0.355535 0.02113  0.311408098592
 C6 0.223026 0.703018 0.49223  0.679643098592
 C5 0.258863 0.803551 0.5561  -0.217571901408
 C6 0.905724 0.349728 0.26572  0.679643098592
 C1 0.521858 0.658728 0.3749  -0.123953776408
 C1 0.617228 0.551718 0.94068  -0.123953776408
 C2 0.348943 0.709324 0.12181  0.0622805985915
 C1 0.799441 0.056488 0.35377  -0.123953776408
 C2 0.577258 0.709028 0.20946  0.0622805985915
 C1 0.185467 0.773246 0.88551  -0.123953776408
 C1 0.696747 0.628787 0.31533  -0.123953776408
 C1 0.229692 0.799392 0.97176  -0.123953776408
 C1 0.57374 0.05062 0.35300  -0.123953776408
 C1 0.834871 0.150796 0.41324  -0.123953776408
 C1 0.168491 0.635355 0.94116  -0.123953776408
 C1 0.121691 0.609949 0.85469  -0.123953776408
 C2 0.552349 0.75988 0.09616  0.0622805985915
 C1 0.576274 0.618997 0.4275  -0.123953776408
 C1 0.635943 0.710006 0.95241  -0.123953776408
 C3 0.496986 0.760139 0.1638  -0.0366469014085
 C4 0.668299 0.0 0.32296  0.311408098592
 C5 0.704059 0.589334 0.84808  -0.217571901408
 C1 0.611068 0.144935 0.41355  -0.123953776408
 C4 0.582304 0.66416 0.31889  0.311408098592
 C6 0.753556 0.557828 0.77583  0.679643098592
 C4 0.224272 0.730269 0.99984  0.311408098592
 C1 0.686259 0.681546 0.88660  -0.123953776408
 C2 0.506644 0.861791 0.22756  0.0622805985915
 C5 0.132022 0.678058 0.82591  -0.217571901408
 C6 0.753597 0.545442 0.48394  0.679643098592
 C5 0.692619 0.584734 0.42586  -0.217571901408
 C1 0.669523 0.524997 0.87639  -0.123953776408
 C1 0.751603 0.590026 0.3692  -0.123953776408
 C4 0.600347 0.644499 0.97901  0.311408098592
 C6 0.77699 0.297023 0.50791  0.679643098592
 C5 0.741124 0.196494 0.44396  -0.217571901408
 C6 0.094313 0.650278 0.73439  0.679643098592
 O1 0.357937 0.086583 0.73603  -0.270046901408
 O2 0.969496 0.433719 0.32227  -0.578756901408
 O1 0.728511 0.237662 0.91383  -0.270046901408
 O2 0.30201 0.465322 0.46869  -0.578756901408
 O3 0.130733 0.476101 0.51577  -0.707956901408
 O1 0.453427 0.336702 0.95885  -0.270046901408
 O2 0.866782 0.289168 0.28818  -0.578756901408
 O1 0.477654 0.294369 0.72986  -0.270046901408
 O2 0.242343 0.390184 0.26114  -0.578756901408
 O2 0.113605 0.64874 0.47746  -0.578756901408
 O2 0.298156 0.670258 0.45144  -0.578756901408
 O2 0.213227 0.522311 0.2492  -0.578756901408
 O1 0.642015 0.913462 0.26409  -0.270046901408
 O2 0.0 0.566299 0.67784  -0.578756901408
 O1 0.27145 0.762367 0.08628  -0.270046901408
 O2 0.697992 0.534663 0.53139  -0.578756901408
 O3 0.869271 0.523913 0.48430  -0.707956901408
 O1 0.546533 0.663336 0.04128  -0.270046901408
 O2 0.133292 0.710828 0.71194  -0.578756901408
 O1 0.522328 0.705681 0.27028  -0.270046901408
 O2 0.757597 0.609826 0.73898  -0.578756901408
 O2 0.886411 0.351294 0.52267  -0.578756901408
 O2 0.701878 0.329787 0.54871  -0.578756901408
 O2 0.786753 0.477716 0.75094  -0.578756901408
