#======================================================================

# CRYSTAL DATA

#----------------------------------------------------------------------

data_VESTA_phase_1


_pd_phase_name                         MOF
_cell_length_a                         21.85000
_cell_length_b                         21.89200
_cell_length_c                         13.97200
_cell_angle_alpha                      95.20000
_cell_angle_beta                       99.23000
_cell_angle_gamma                      99.89000
_symmetry_space_group_name_H-M         "P 1"
_symmetry_Int_Tables_number            1

loop_
_symmetry_equiv_pos_as_xyz
   "x, y, z"

loop_
   _atom_site_label
   _atom_site_fract_x
   _atom_site_fract_y
   _atom_site_fract_z
 _atom_site_charge
 Zn1 0.195529 0.378024 0.89234  0.9243805
 Zn1 0.186299 0.881614 0.89234  0.9243805
 Zn1 0.701946 0.378156 0.89247  0.9243805
 Zn1 0.692708 0.881741 0.89247  0.9243805
 Zn1 0.168239 0.35857 0.68104  0.9243805
 Zn1 0.159 0.862157 0.68104  0.9243805
 Zn1 0.673022 0.358491 0.68090  0.9243805
 Zn1 0.663786 0.86208 0.68090  0.9243805
 Zn1 0.339472 0.143665 0.12252  0.9243805
 Zn1 0.330234 0.647251 0.12252  0.9243805
 Zn1 0.845881 0.143793 0.12265  0.9243805
 Zn1 0.836651 0.647383 0.12265  0.9243805
 Zn1 0.368394 0.163328 0.33409  0.9243805
 Zn1 0.359158 0.666916 0.33409  0.9243805
 Zn1 0.87318 0.16325 0.33395  0.9243805
 Zn1 0.863941 0.666838 0.33395  0.9243805
 H1 0.153339 0.040985 0.64056  0.110199
 H1 0.144204 0.544592 0.64054  0.110199
 H1 0.658612 0.040993 0.64057  0.110199
 H1 0.649403 0.544585 0.64057  0.110199
 H1 0.144714 0.153918 0.63560  0.110199
 H1 0.135583 0.657527 0.63559  0.110199
 H1 0.650009 0.153946 0.63567  0.110199
 H1 0.640797 0.657536 0.63566  0.110199
 H1 0.222751 0.192416 0.94188  0.110199
 H1 0.213563 0.696009 0.94188  0.110199
 H1 0.728723 0.19252 0.94170  0.110199
 H1 0.719576 0.696125 0.94167  0.110199
 H1 0.229844 0.080324 0.94723  0.110199
 H1 0.220649 0.583916 0.94724  0.110199
 H1 0.735713 0.080408 0.94705  0.110199
 H1 0.726556 0.584012 0.94702  0.110199
 H1 0.464368 0.333004 0.62519  0.110199
 H1 0.455119 0.836559 0.625  0.110199
 H1 0.969837 0.332879 0.62459  0.110199
 H1 0.960582 0.836401 0.62460  0.110199
 H1 0.351975 0.340053 0.63336  0.110199
 H1 0.342727 0.843613 0.63337  0.110199
 H1 0.857455 0.339862 0.63282  0.110199
 H1 0.848203 0.843387 0.63283  0.110199
 H1 0.404676 0.401708 0.94082  0.110199
 H1 0.395444 0.905338 0.94081  0.110199
 H1 0.91029 0.402065 0.94011  0.110199
 H1 0.901056 0.905657 0.94010  0.110199
 H1 0.517046 0.393166 0.93282  0.110199
 H1 0.507813 0.896789 0.9328  0.110199
 H1 0.0 0.393569 0.93207  0.110199
 H1 0.0 0.897158 0.93206  0.110199
 H1 0.172367 0.45889 0.04743  0.110199
 H1 0.163046 0.962481 0.04738  0.110199
 H1 0.677976 0.459007 0.04731  0.110199
 H1 0.668766 0.962595 0.04729  0.110199
 H1 0.142564 0.263367 0.19469  0.110199
 H1 0.133562 0.766986 0.19477  0.110199
 H1 0.649062 0.263574 0.19494  0.110199
 H1 0.639896 0.767179 0.19497  0.110199
 H1 0.145997 0.26585 0.01657  0.110199
 H1 0.136966 0.769458 0.01664  0.110199
 H1 0.652676 0.266025 0.01687  0.110199
 H1 0.643485 0.769614 0.01689  0.110199
 H1 0.258228 0.387731 0.36875  0.110199
 H1 0.249048 0.891509 0.36885  0.110199
 H1 0.763941 0.38829 0.36925  0.110199
 H1 0.754759 0.891915 0.36930  0.110199
 H1 0.259176 0.382446 0.54810  0.110199
 H1 0.249956 0.886206 0.54819  0.110199
 H1 0.764577 0.382876 0.54852  0.110199
 H1 0.755371 0.886501 0.54856  0.110199
 H1 0.064455 0.333558 0.50278  0.110199
 H1 0.055251 0.837032 0.50271  0.110199
 H1 0.56988 0.333259 0.50219  0.110199
 H1 0.560674 0.836872 0.50217  0.110199
 H1 0.219786 0.493881 0.29380  0.110199
 H1 0.210591 0.997657 0.29347  0.110199
 H1 0.72524 0.49442 0.293  0.110199
 H1 0.716081 0.998036 0.29325  0.110199
 H1 0.182406 0.016848 0.19578  0.110199
 H1 0.173554 0.520458 0.19586  0.110199
 H1 0.687626 0.016936 0.19555  0.110199
 H1 0.678348 0.520514 0.19557  0.110199
 H1 0.137148 0.484986 0.28757  0.110199
 H1 0.127982 0.988462 0.28784  0.110199
 H1 0.642614 0.484822 0.28771  0.110199
 H1 0.63346 0.988427 0.28774  0.110199
 H1 0.034313 0.298095 0.24142  0.110199
 H1 0.025209 0.801536 0.24139  0.110199
 H1 0.540342 0.298061 0.24077  0.110199
 H1 0.531153 0.801638 0.24079  0.110199
 H1 0.504783 0.313903 0.34342  0.110199
 H1 0.49559 0.817559 0.34341  0.110199
 H1 0.0 0.314396 0.3442  0.110199
 H1 0.0 0.817849 0.34412  0.110199
 H1 0.024276 0.375015 0.27462  0.110199
 H1 0.01509 0.878443 0.27446  0.110199
 H1 0.529897 0.374804 0.27425  0.110199
 H1 0.520738 0.878406 0.27417  0.110199
 H1 0.382775 0.480822 0.37442  0.110199
 H1 0.373568 0.984414 0.37442  0.110199
 H1 0.887986 0.480818 0.37444  0.110199
 H1 0.87886 0.984427 0.37443  0.110199
 H1 0.39138 0.36787 0.37933  0.110199
 H1 0.38217 0.871461 0.37932  0.110199
 H1 0.896608 0.367883 0.379  0.110199
 H1 0.887484 0.871493 0.37938  0.110199
 H1 0.31261 0.329283 0.07331  0.110199
 H1 0.303459 0.832888 0.07329  0.110199
 H1 0.818616 0.329399 0.07311  0.110199
 H1 0.809432 0.832992 0.07312  0.110199
 H1 0.305629 0.441396 0.06796  0.110199
 H1 0.29647 0.945 0.06794  0.110199
 H1 0.811529 0.441492 0.06775  0.110199
 H1 0.802339 0.945085 0.06776  0.110199
 H1 0.071598 0.189006 0.39039  0.110199
 H1 0.062343 0.692529 0.390  0.110199
 H1 0.577062 0.188851 0.38979  0.110199
 H1 0.567812 0.692404 0.38980  0.110199
 H1 0.183977 0.18202 0.38216  0.110199
 H1 0.174725 0.685546 0.38217  0.110199
 H1 0.689454 0.181799 0.38162  0.110199
 H1 0.680205 0.685355 0.3816  0.110199
 H1 0.131126 0.11976 0.07488  0.110199
 H1 0.121892 0.623347 0.07488  0.110199
 H1 0.636737 0.120077 0.07418  0.110199
 H1 0.627505 0.623708 0.07416  0.110199
 H1 0.018827 0.128259 0.08293  0.110199
 H1 0.009591 0.631843 0.08292  0.110199
 H1 0.524369 0.128625 0.08218  0.110199
 H1 0.515136 0.63225 0.08217  0.110199
 H1 0.363419 0.062815 0.96769  0.110199
 H1 0.354208 0.566405 0.9676  0.110199
 H1 0.869132 0.062929 0.96760  0.110199
 H1 0.85981 0.566522 0.96755  0.110199
 H1 0.392293 0.258237 0.82003  0.110199
 H1 0.383125 0.761844 0.82006  0.110199
 H1 0.898631 0.258431 0.82023  0.110199
 H1 0.889632 0.762051 0.82031  0.110199
 H1 0.388702 0.255796 0.99811  0.110199
 H1 0.379507 0.759387 0.99813  0.110199
 H1 0.895224 0.255953 0.99836  0.110199
 H1 0.886196 0.759562 0.99843  0.110199
 H1 0.277427 0.133506 0.64570  0.110199
 H1 0.268246 0.637128 0.6457  0.110199
 H1 0.783135 0.133923 0.64614  0.110199
 H1 0.773956 0.637707 0.6462  0.110199
 H1 0.276813 0.138917 0.46644  0.110199
 H1 0.267607 0.642536 0.46648  0.110199
 H1 0.782226 0.139222 0.46681  0.110199
 H1 0.773006 0.642986 0.466  0.110199
 H1 0.47151 0.188544 0.51282  0.110199
 H1 0.462304 0.692157 0.51280  0.110199
 H1 0.976932 0.188372 0.51228  0.110199
 H1 0.967728 0.691843 0.51220  0.110199
 H1 0.316106 0.027381 0.7217  0.110199
 H1 0.306948 0.530997 0.72169  0.110199
 H1 0.821587 0.027764 0.72151  0.110199
 H1 0.812396 0.531544 0.72117  0.110199
 H1 0.353844 0.504903 0.81941  0.110199
 H1 0.344563 0.0 0.81943  0.110199
 H1 0.858616 0.504957 0.8191  0.110199
 H1 0.849771 0.0 0.81919  0.110199
 H1 0.398726 0.036992 0.72724  0.110199
 H1 0.389574 0.540599 0.72727  0.110199
 H1 0.904196 0.036955 0.72714  0.110199
 H1 0.895035 0.540429 0.72742  0.110199
 H1 0.501032 0.22378 0.77420  0.110199
 H1 0.491843 0.727359 0.7742  0.110199
 H1 0.0 0.223874 0.77360  0.110199
 H1 0.99788 0.727315 0.77356  0.110199
 H1 0.030891 0.207555 0.67087  0.110199
 H1 0.021729 0.711001 0.67076  0.110199
 H1 0.536595 0.207863 0.67158  0.110199
 H1 0.527402 0.711524 0.67157  0.110199
 H1 0.51145 0.147014 0.74082  0.110199
 H1 0.502294 0.65062 0.74073  0.110199
 H1 0.0 0.146964 0.74053  0.110199
 H1 0.0 0.65039 0.74037  0.110199
 C1 0.18749 0.489734 0.79648  0.6658155
 C1 0.1782 0.993315 0.79648  0.6658155
 C1 0.692762 0.489732 0.79644  0.6658155
 C1 0.6835 0.993316 0.79645  0.6658155
 C2 0.192211 0.053792 0.79392  -0.039683875
 C2 0.183049 0.557392 0.79391  -0.039683875
 C2 0.6977 0.05383 0.79385  -0.039683875
 C2 0.688514 0.557427 0.79383  -0.039683875
 C3 0.168197 0.074707 0.70603  -0.092372
 C3 0.15905 0.578312 0.70602  -0.092372
 C3 0.673593 0.074736 0.70601  -0.092372
 C3 0.664397 0.57833 0.70600  -0.092372
 C3 0.163349 0.137158 0.70337  -0.092372
 C3 0.154201 0.640763 0.70336  -0.092372
 C3 0.668766 0.137192 0.70337  -0.092372
 C3 0.659565 0.640785 0.70336  -0.092372
 C2 0.182783 0.180002 0.78838  -0.039683875
 C2 0.173609 0.6836 0.78838  -0.039683875
 C2 0.688339 0.180048 0.78835  -0.039683875
 C2 0.679146 0.683643 0.78834  -0.039683875
 C3 0.20697 0.159081 0.87614  -0.092372
 C3 0.19779 0.662675 0.87614  -0.092372
 C3 0.712769 0.159163 0.87601  -0.092372
 C3 0.703603 0.662765 0.87599  -0.092372
 C3 0.211311 0.096536 0.87901  -0.092372
 C3 0.202131 0.60013 0.87901  -0.092372
 C3 0.717058 0.096607 0.87888  -0.092372
 C3 0.707892 0.600209 0.87885  -0.092372
 C1 0.178438 0.247622 0.78503  0.6658155
 C1 0.169256 0.751219 0.78504  0.6658155
 C1 0.683855 0.247643 0.78510  0.6658155
 C1 0.674636 0.751233 0.78509  0.6658155
 C1 0.059328 0.359746 0.77344  0.6658155
 C1 0.050089 0.863311 0.7734  0.6658155
 C1 0.565064 0.359657 0.77368  0.6658155
 C1 0.555824 0.863244 0.77368  0.6658155
 C2 0.497403 0.36286 0.77855  -0.039683875
 C2 0.488164 0.86645 0.77855  -0.039683875
 C2 0.0 0.363013 0.7778  -0.039683875
 C2 0.993748 0.866567 0.77787  -0.039683875
 C3 0.450853 0.348009 0.69398  -0.092372
 C3 0.44161 0.851581 0.69398  -0.092372
 C3 0.956387 0.348027 0.69337  -0.092372
 C3 0.94714 0.851563 0.69338  -0.092372
 C3 0.388554 0.352385 0.69839  -0.092372
 C3 0.37931 0.855959 0.69839  -0.092372
 C3 0.894047 0.352353 0.69782  -0.092372
 C3 0.8848 0.855896 0.69783  -0.092372
 C2 0.371668 0.372118 0.78733  -0.039683875
 C2 0.36243 0.875713 0.78732  -0.039683875
 C2 0.877121 0.372182 0.78668  -0.039683875
 C2 0.867881 0.875752 0.78668  -0.039683875
 C3 0.41821 0.38681 0.87198  -0.092372
 C3 0.408975 0.890423 0.87197  -0.092372
 C3 0.923751 0.387072 0.87125  -0.092372
 C3 0.914514 0.890652 0.87125  -0.092372
 C3 0.480466 0.382004 0.86767  -0.092372
 C3 0.471231 0.885614 0.86766  -0.092372
 C3 0.986016 0.382305 0.86692  -0.092372
 C3 0.976778 0.88588 0.8669  -0.092372
 C1 0.304118 0.375997 0.79184  0.6658155
 C1 0.294884 0.879598 0.79184  0.6658155
 C1 0.809535 0.375982 0.79142  0.6658155
 C1 0.800297 0.879564 0.79143  0.6658155
 C4 0.165965 0.416748 0.08364  0.128503
 C4 0.156717 0.920346 0.0836  0.128503
 C4 0.671793 0.416887 0.08361  0.128503
 C4 0.662594 0.920478 0.08360  0.128503
 C2 0.165217 0.420646 0.18385  -0.039683875
 C2 0.155981 0.924251 0.18384  -0.039683875
 C2 0.670918 0.420796 0.18378  -0.039683875
 C2 0.661736 0.924397 0.18378  -0.039683875
 C2 0.156244 0.364025 0.22493  -0.039683875
 C2 0.147092 0.867637 0.2249  -0.039683875
 C2 0.66219 0.364201 0.22497  -0.039683875
 C2 0.653015 0.867807 0.22499  -0.039683875
 C3 0.149054 0.307723 0.16468  -0.092372
 C3 0.139982 0.811335 0.16473  -0.092372
 C3 0.65537 0.307911 0.16484  -0.092372
 C3 0.646195 0.811512 0.16487  -0.092372
 C4 0.151031 0.308494 0.06607  0.128503
 C4 0.141944 0.812101 0.06612  0.128503
 C4 0.657459 0.308665 0.06627  0.128503
 C4 0.648269 0.812257 0.06629  0.128503
 C2 0.156387 0.362666 0.33126  -0.039683875
 C2 0.147221 0.866285 0.33128  -0.039683875
 C2 0.662151 0.362841 0.33126  -0.039683875
 C2 0.65297 0.866454 0.33128  -0.039683875
 C3 0.214188 0.375876 0.39597  -0.092372
 C3 0.205004 0.879583 0.39603  -0.092372
 C3 0.719845 0.376246 0.39624  -0.092372
 C3 0.710659 0.879867 0.39627  -0.092372
 C4 0.21536 0.37292 0.49499  0.128503
 C4 0.206152 0.876619 0.49504  0.128503
 C4 0.720845 0.373227 0.49521  0.128503
 C4 0.711645 0.876847 0.49524  0.128503
 C4 0.10612 0.345142 0.46932  0.128503
 C4 0.096923 0.848678 0.46929  0.128503
 C4 0.611628 0.345039 0.46900  0.128503
 C4 0.602428 0.848652 0.46899  0.128503
 C2 0.100147 0.346761 0.36843  -0.039683875
 C2 0.090973 0.850299 0.36840  -0.039683875
 C2 0.605833 0.346716 0.36814  -0.039683875
 C2 0.596645 0.85033 0.36814  -0.039683875
 C5 0.174211 0.483248 0.24323  -0.3415645
 C5 0.164898 0.986852 0.24319  -0.3415645
 C5 0.679539 0.483389 0.24304  -0.3415645
 C5 0.670365 0.986994 0.24303  -0.3415645
 C5 0.036091 0.332738 0.30425  -0.3415645
 C5 0.026934 0.836199 0.30417  -0.3415645
 C5 0.541867 0.332529 0.3037  -0.3415645
 C5 0.532685 0.836142 0.30369  -0.3415645
 C1 0.348681 0.032091 0.21854  0.6658155
 C1 0.339419 0.535675 0.21855  0.6658155
 C1 0.853987 0.032094 0.21851  0.6658155
 C1 0.844693 0.535674 0.21851  0.6658155
 C2 0.343668 0.467981 0.2211  -0.039683875
 C2 0.33448 0.971577 0.22114  -0.039683875
 C2 0.849135 0.468016 0.22108  -0.039683875
 C2 0.839979 0.971618 0.22107  -0.039683875
 C3 0.367783 0.447077 0.30899  -0.092372
 C3 0.358586 0.950671 0.30898  -0.092372
 C3 0.873138 0.447097 0.30897  -0.092372
 C3 0.863998 0.950704 0.30896  -0.092372
 C3 0.372614 0.384622 0.31163  -0.092372
 C3 0.363414 0.888215 0.31162  -0.092372
 C3 0.877987 0.384647 0.3116  -0.092372
 C3 0.868845 0.888253 0.31162  -0.092372
 C2 0.353035 0.341764 0.22665  -0.039683875
 C2 0.343842 0.84536 0.22664  -0.039683875
 C2 0.858575 0.341808 0.22661  -0.039683875
 C2 0.849405 0.845407 0.22661  -0.039683875
 C3 0.328581 0.362643 0.13900  -0.092372
 C3 0.319413 0.866245 0.13898  -0.092372
 C3 0.834391 0.362733 0.13885  -0.092372
 C3 0.825216 0.866328 0.13885  -0.092372
 C3 0.324292 0.425199 0.13613  -0.092372
 C3 0.315124 0.9288 0.13612  -0.092372
 C3 0.830049 0.425278 0.13598  -0.092372
 C3 0.820875 0.928873 0.13598  -0.092372
 C1 0.357545 0.274174 0.22990  0.6658155
 C1 0.348326 0.777764 0.22989  0.6658155
 C1 0.862926 0.274189 0.22995  0.6658155
 C1 0.853747 0.777787 0.22996  0.6658155
 C1 0.476356 0.162165 0.24131  0.6658155
 C1 0.467116 0.665751 0.24131  0.6658155
 C1 0.982092 0.162098 0.24155  0.6658155
 C1 0.972852 0.665662 0.24155  0.6658155
 C2 0.038433 0.158844 0.23712  -0.039683875
 C2 0.029189 0.662395 0.23712  -0.039683875
 C2 0.544018 0.158964 0.23644  -0.039683875
 C2 0.534778 0.662551 0.2364  -0.039683875
 C3 0.085041 0.173847 0.32161  -0.092372
 C3 0.075793 0.677382 0.3216  -0.092372
 C3 0.590572 0.173831 0.32101  -0.092372
 C3 0.581327 0.6774 0.32101  -0.092372
 C3 0.147381 0.169514 0.31716  -0.092372
 C3 0.138133 0.673056 0.31717  -0.092372
 C3 0.652871 0.169453 0.31660  -0.092372
 C3 0.643627 0.673026 0.31659  -0.092372
 C2 0.1643 0.14966 0.22830  -0.039683875
 C2 0.155059 0.653229 0.22830  -0.039683875
 C2 0.669751 0.149698 0.22767  -0.039683875
 C2 0.660513 0.653295 0.22766  -0.039683875
 C3 0.117668 0.134763 0.14374  -0.092372
 C3 0.10843 0.63834 0.1437  -0.092372
 C3 0.623207 0.134991 0.14302  -0.092372
 C3 0.613972 0.638606 0.1430  -0.092372
 C3 0.055404 0.139535 0.14807  -0.092372
 C3 0.046165 0.643105 0.14807  -0.092372
 C3 0.560951 0.1398 0.14733  -0.092372
 C3 0.551715 0.64341 0.1473  -0.092372
 C1 0.231884 0.145845 0.22356  0.6658155
 C1 0.222645 0.649426 0.2235  0.6658155
 C1 0.737297 0.145811 0.2231  0.6658155
 C1 0.728062 0.649413 0.22314  0.6658155
 C4 0.369592 0.104933 0.93138  0.128503
 C4 0.360392 0.608527 0.93138  0.128503
 C4 0.875465 0.105065 0.93136  0.128503
 C4 0.866217 0.608665 0.9313  0.128503
 C2 0.370451 0.101018 0.83120  -0.039683875
 C2 0.361269 0.60462 0.8312  -0.039683875
 C2 0.876201 0.101164 0.83115  -0.039683875
 C2 0.866966 0.60477 0.83114  -0.039683875
 C2 0.379172 0.15761 0.79000  -0.039683875
 C2 0.369998 0.661217 0.79002  -0.039683875
 C2 0.885093 0.15778 0.79004  -0.039683875
 C2 0.875944 0.661393 0.79006  -0.039683875
 C3 0.385993 0.213903 0.85013  -0.092372
 C3 0.376817 0.717506 0.85015  -0.092372
 C3 0.892207 0.21408 0.85027  -0.092372
 C3 0.883138 0.717694 0.85032  -0.092372
 C4 0.383918 0.213154 0.94871  0.128503
 C4 0.374726 0.716749 0.9487  0.128503
 C4 0.890245 0.213311 0.94888  0.128503
 C4 0.881159 0.716919 0.9489  0.128503
 C2 0.379216 0.158964 0.68371  -0.039683875
 C2 0.370036 0.662578 0.68373  -0.039683875
 C2 0.884964 0.159135 0.68371  -0.039683875
 C2 0.875799 0.662755 0.68373  -0.039683875
 C3 0.321527 0.145553 0.61872  -0.092372
 C3 0.312341 0.649171 0.61875  -0.092372
 C3 0.827179 0.145843 0.61896  -0.092372
 C3 0.817996 0.649553 0.6190  -0.092372
 C4 0.320539 0.148571 0.51975  0.128503
 C4 0.311339 0.652188 0.51978  0.128503
 C4 0.82603 0.148805 0.51995  0.128503
 C4 0.816823 0.652506 0.52001  0.128503
 C4 0.429756 0.176764 0.54600  0.128503
 C4 0.420556 0.680377 0.54599  0.128503
 C4 0.93526 0.176732 0.54570  0.128503
 C4 0.926063 0.680267 0.54566  0.128503
 C2 0.43554 0.175089 0.64685  -0.039683875
 C2 0.426353 0.678704 0.64685  -0.039683875
 C2 0.941211 0.175113 0.64658  -0.039683875
 C2 0.932039 0.67865 0.64655  -0.039683875
 C5 0.361822 0.038423 0.7719  -0.3415645
 C5 0.35265 0.542029 0.77195  -0.3415645
 C5 0.867281 0.038565 0.77179  -0.3415645
 C5 0.857968 0.54217 0.77175  -0.3415645
 C5 0.499501 0.189277 0.71130  -0.3415645
 C5 0.49032 0.692893 0.71128  -0.3415645
 C5 0.0 0.189209 0.71082  -0.3415645
 C5 0.996096 0.692667 0.7107  -0.3415645
 N1 0.159239 0.362394 0.0258  -0.2858945
 N1 0.150056 0.865993 0.02590  -0.2858945
 N1 0.665426 0.362541 0.02598  -0.2858945
 N1 0.65622 0.866128 0.02599  -0.2858945
 N1 0.161955 0.357676 0.53142  -0.2858945
 N1 0.152743 0.861286 0.53143  -0.2858945
 N1 0.667361 0.357731 0.53135  -0.2858945
 N1 0.658154 0.861345 0.53136  -0.2858945
 N1 0.375965 0.159281 0.98900  -0.2858945
 N1 0.366757 0.662871 0.98901  -0.2858945
 N1 0.882128 0.159417 0.98909  -0.2858945
 N1 0.872945 0.663017 0.9891  -0.2858945
 N1 0.374029 0.164071 0.4836  -0.2858945
 N1 0.364823 0.667682 0.48364  -0.2858945
 N1 0.87944 0.164129 0.48356  -0.2858945
 N1 0.870227 0.667739 0.48357  -0.2858945
 O1 0.177613 0.455622 0.71475  -0.59173825
 O1 0.168336 0.959206 0.71475  -0.59173825
 O1 0.682928 0.455623 0.71471  -0.59173825
 O1 0.673687 0.959214 0.71471  -0.59173825
 O1 0.200689 0.471847 0.8804  -0.59173825
 O1 0.191438 0.975435 0.88046  -0.59173825
 O1 0.705744 0.471839 0.88045  -0.59173825
 O1 0.696494 0.975423 0.88045  -0.59173825
 O1 0.191601 0.282586 0.8664  -0.59173825
 O1 0.182489 0.786195 0.8664  -0.59173825
 O1 0.697563 0.28267 0.86650  -0.59173825
 O1 0.688331 0.786257 0.86649  -0.59173825
 O1 0.162409 0.264831 0.70150  -0.59173825
 O1 0.153181 0.768421 0.70152  -0.59173825
 O1 0.667159 0.264752 0.701  -0.59173825
 O1 0.657928 0.768341 0.70169  -0.59173825
 O1 0.073699 0.350777 0.6889  -0.59173825
 O1 0.064459 0.854353 0.68892  -0.59173825
 O1 0.578848 0.350721 0.68873  -0.59173825
 O1 0.569611 0.854307 0.6887  -0.59173825
 O1 0.097082 0.366755 0.85456  -0.59173825
 O1 0.087848 0.870326 0.85455  -0.59173825
 O1 0.603267 0.366659 0.85431  -0.59173825
 O1 0.594026 0.870244 0.85431  -0.59173825
 O1 0.265944 0.366716 0.71045  -0.59173825
 O1 0.256704 0.870308 0.71045  -0.59173825
 O1 0.771024 0.366461 0.71040  -0.59173825
 O1 0.761786 0.870044 0.71041  -0.59173825
 O1 0.290266 0.387852 0.87571  -0.59173825
 O1 0.281042 0.891473 0.87571  -0.59173825
 O1 0.795993 0.388083 0.87550  -0.59173825
 O1 0.786756 0.891666 0.87550  -0.59173825
 O1 0.358493 0.066194 0.30028  -0.59173825
 O1 0.349252 0.569784 0.30028  -0.59173825
 O1 0.863853 0.066204 0.30024  -0.59173825
 O1 0.854572 0.569786 0.30024  -0.59173825
 O1 0.335687 0.049984 0.13454  -0.59173825
 O1 0.326437 0.553569 0.13454  -0.59173825
 O1 0.840742 0.049972 0.13453  -0.59173825
 O1 0.83149 0.55356 0.13453  -0.59173825
 O1 0.343848 0.23915 0.14850  -0.59173825
 O1 0.334616 0.742737 0.14849  -0.59173825
 O1 0.849694 0.239213 0.14851  -0.59173825
 O1 0.840586 0.742823 0.1485  -0.59173825
 O1 0.374252 0.257066 0.31330  -0.59173825
 O1 0.36502 0.760654 0.313  -0.59173825
 O1 0.879 0.256987 0.31347  -0.59173825
 O1 0.869773 0.760576 0.31349  -0.59173825
 O1 0.46257 0.1711 0.32626  -0.59173825
 O1 0.453332 0.674687 0.32626  -0.59173825
 O1 0.967723 0.171056 0.32607  -0.59173825
 O1 0.958482 0.674632 0.32606  -0.59173825
 O1 0.438154 0.155163 0.16068  -0.59173825
 O1 0.428913 0.658749 0.16068  -0.59173825
 O1 0.944333 0.155081 0.1604  -0.59173825
 O1 0.935098 0.658652 0.16043  -0.59173825
 O1 0.270394 0.155363 0.30458  -0.59173825
 O1 0.261156 0.658946 0.3045  -0.59173825
 O1 0.775477 0.1551 0.30454  -0.59173825
 O1 0.766236 0.65869 0.30454  -0.59173825
 O1 0.245425 0.133741 0.13949  -0.59173825
 O1 0.236187 0.637324 0.13949  -0.59173825
 O1 0.75114 0.133936 0.13928  -0.59173825
 O1 0.741915 0.637557 0.13928  -0.59173825
