#======================================================================

# CRYSTAL DATA

#----------------------------------------------------------------------

data_VESTA_phase_1


_pd_phase_name                         MOF
_cell_length_a                         18.62600
_cell_length_b                         14.53600
_cell_length_c                         27.64900
_cell_angle_alpha                      89.93500
_cell_angle_beta                       89.86700
_cell_angle_gamma                      92.54300
_symmetry_space_group_name_H-M         "P 1"
_symmetry_Int_Tables_number            1

loop_
_symmetry_equiv_pos_as_xyz
   "x, y, z"

loop_
   _atom_site_label
   _atom_site_fract_x
   _atom_site_fract_y
   _atom_site_fract_z
 _atom_site_charge
 Zn1 0.349411 0.120757 0.33368  1.1729935
 Zn1 0.849404 0.120757 0.33368  1.1729935
 Zn2 0.496751 0.10572 0.37892  1.0327035
 Zn2 0.996743 0.105719 0.37892  1.0327035
 Zn1 0.150674 0.379307 0.83348  1.1729935
 Zn1 0.650666 0.379307 0.83348  1.1729935
 Zn2 0.00333 0.394092 0.87905  1.0327035
 Zn2 0.503322 0.394092 0.87905  1.0327035
 Zn1 0.150577 0.879223 0.66630  1.1729935
 Zn1 0.650569 0.879223 0.66630  1.1729935
 Zn2 0.003238 0.894261 0.62107  1.0327035
 Zn2 0.50323 0.89426 0.62107  1.0327035
 Zn1 0.349314 0.620676 0.16651  1.1729935
 Zn1 0.849306 0.620675 0.16651  1.1729935
 Zn2 0.496657 0.605891 0.12093  1.0327035
 Zn2 0.996649 0.605891 0.12093  1.0327035
 H1 0.055321 0.330592 0.36578  0.0953923888889
 H1 0.555312 0.330592 0.36578  0.0953923888889
 H1 0.089676 0.555608 0.26493  0.0953923888889
 H1 0.589668 0.555607 0.26493  0.0953923888889
 H1 0.390767 0.39156 0.26270  0.0953923888889
 H1 0.890759 0.391561 0.26270  0.0953923888889
 H1 0.173613 0.355775 0.37292  0.0953923888889
 H1 0.673603 0.355776 0.37292  0.0953923888889
 H1 0.124556 0.433838 0.40855  0.0953923888889
 H1 0.624547 0.433841 0.40855  0.0953923888889
 H1 0.304846 0.390172 0.3564  0.0953923888889
 H1 0.804837 0.390162 0.35642  0.0953923888889
 H1 0.417877 0.463512 0.38758  0.0953923888889
 H1 0.917868 0.463501 0.38758  0.0953923888889
 H1 0.295912 0.643554 0.47632  0.0953923888889
 H1 0.795903 0.643566 0.47631  0.0953923888889
 H1 0.183335 0.565936 0.4473  0.0953923888889
 H1 0.683326 0.565948 0.44736  0.0953923888889
 H1 0.992248 0.590283 0.38518  0.0953923888889
 H1 0.492237 0.590295 0.38518  0.0953923888889
 H1 0.104028 0.666398 0.41553  0.0953923888889
 H1 0.604017 0.666411 0.4155  0.0953923888889
 H1 0.003269 0.708265 0.55348  0.0953923888889
 H1 0.503264 0.708254 0.55348  0.0953923888889
 H1 0.390869 0.634272 0.52301  0.0953923888889
 H1 0.890858 0.634283 0.52301  0.0953923888889
 H1 0.122306 0.764082 0.54247  0.0953923888889
 H1 0.622298 0.764083 0.54247  0.0953923888889
 H1 0.172146 0.682062 0.51015  0.0953923888889
 H1 0.672138 0.682062 0.51015  0.0953923888889
 H1 0.211192 0.924724 0.41579  0.0953923888889
 H1 0.711184 0.924724 0.41579  0.0953923888889
 H1 0.413315 0.965862 0.49074  0.0953923888889
 H1 0.913306 0.965867 0.49074  0.0953923888889
 H1 0.250928 0.777875 0.54856  0.0953923888889
 H1 0.75092 0.777877 0.54856  0.0953923888889
 H1 0.445462 0.169018 0.86634  0.0953923888889
 H1 0.945455 0.169017 0.86634  0.0953923888889
 H1 0.410671 0.944385 0.76564  0.0953923888889
 H1 0.910663 0.944383 0.76565  0.0953923888889
 H1 0.109562 0.108557 0.76243  0.0953923888889
 H1 0.609555 0.108557 0.76243  0.0953923888889
 H1 0.327411 0.1445 0.87367  0.0953923888889
 H1 0.827404 0.144501 0.87367  0.0953923888889
 H1 0.375911 0.066154 0.90945  0.0953923888889
 H1 0.875903 0.066158 0.90945  0.0953923888889
 H1 0.196165 0.111546 0.85759  0.0953923888889
 H1 0.696159 0.111546 0.85759  0.0953923888889
 H1 0.082672 0.038212 0.88851  0.0953923888889
 H1 0.582664 0.038214 0.88851  0.0953923888889
 H1 0.203429 0.855994 0.97662  0.0953923888889
 H1 0.70342 0.856001 0.97662  0.0953923888889
 H1 0.31643 0.933745 0.94802  0.0953923888889
 H1 0.816421 0.933751 0.94803  0.0953923888889
 H1 0.507991 0.911619 0.88558  0.0953923888889
 H1 0.0 0.91162 0.88558  0.0953923888889
 H1 0.395913 0.835153 0.91565  0.0953923888889
 H1 0.895902 0.835157 0.9156  0.0953923888889
 H1 0.495648 0.790529 0.05343  0.0953923888889
 H1 0.995642 0.790523 0.05343  0.0953923888889
 H1 0.108355 0.864557 0.02318  0.0953923888889
 H1 0.608345 0.864565 0.02318  0.0953923888889
 H1 0.376597 0.735823 0.04244  0.0953923888889
 H1 0.876589 0.735825 0.04244  0.0953923888889
 H1 0.326935 0.817679 0.0099  0.0953923888889
 H1 0.826926 0.817679 0.00991  0.0953923888889
 H1 0.289474 0.575783 0.91534  0.0953923888889
 H1 0.789467 0.57578 0.91534  0.0953923888889
 H1 0.086028 0.534493 0.98929  0.0953923888889
 H1 0.58602 0.534491 0.98929  0.0953923888889
 H1 0.247557 0.721893 0.04797  0.0953923888889
 H1 0.747549 0.721893 0.04797  0.0953923888889
 H1 0.444668 0.669387 0.63420  0.0953923888889
 H1 0.94466 0.669386 0.63420  0.0953923888889
 H1 0.410311 0.444375 0.73505  0.0953923888889
 H1 0.910303 0.444375 0.73505  0.0953923888889
 H1 0.109221 0.608419 0.7372  0.0953923888889
 H1 0.609214 0.608418 0.7372  0.0953923888889
 H1 0.326374 0.6442 0.62706  0.0953923888889
 H1 0.826368 0.644199 0.62706  0.0953923888889
 H1 0.375433 0.566133 0.59143  0.0953923888889
 H1 0.875427 0.56613 0.59143  0.0953923888889
 H1 0.195141 0.609804 0.64356  0.0953923888889
 H1 0.695134 0.609808 0.64356  0.0953923888889
 H1 0.082112 0.536457 0.61240  0.0953923888889
 H1 0.582105 0.536462 0.61240  0.0953923888889
 H1 0.204083 0.356401 0.52367  0.0953923888889
 H1 0.704074 0.356398 0.52367  0.0953923888889
 H1 0.316658 0.434025 0.55262  0.0953923888889
 H1 0.81665 0.434021 0.55262  0.0953923888889
 H1 0.507747 0.40967 0.6148  0.0953923888889
 H1 0.0 0.409666 0.61481  0.0953923888889
 H1 0.395966 0.333557 0.5844  0.0953923888889
 H1 0.895959 0.333553 0.5844  0.0953923888889
 H1 0.496722 0.291709 0.44650  0.0953923888889
 H1 0.996715 0.291709 0.44650  0.0953923888889
 H1 0.109126 0.365687 0.4769  0.0953923888889
 H1 0.609118 0.365686 0.47697  0.0953923888889
 H1 0.377686 0.23588 0.45751  0.0953923888889
 H1 0.877679 0.235877 0.45751  0.0953923888889
 H1 0.327848 0.317909 0.48983  0.0953923888889
 H1 0.827841 0.317908 0.4898  0.0953923888889
 H1 0.288797 0.075251 0.58419  0.0953923888889
 H1 0.788789 0.075251 0.58419  0.0953923888889
 H1 0.086677 0.034104 0.50924  0.0953923888889
 H1 0.586668 0.034108 0.5092  0.0953923888889
 H1 0.249062 0.222096 0.45142  0.0953923888889
 H1 0.749055 0.222097 0.45142  0.0953923888889
 H1 0.054529 0.830959 0.13365  0.0953923888889
 H1 0.554522 0.830958 0.13365  0.0953923888889
 H1 0.089318 0.055596 0.23434  0.0953923888889
 H1 0.58931 0.055594 0.2343  0.0953923888889
 H1 0.390425 0.891426 0.23756  0.0953923888889
 H1 0.890418 0.891425 0.23756  0.0953923888889
 H1 0.172583 0.855474 0.12632  0.0953923888889
 H1 0.672577 0.855474 0.12632  0.0953923888889
 H1 0.124083 0.93381 0.09054  0.0953923888889
 H1 0.624076 0.933813 0.09054  0.0953923888889
 H1 0.303828 0.888431 0.14240  0.0953923888889
 H1 0.803822 0.888432 0.14241  0.0953923888889
 H1 0.417321 0.961764 0.11148  0.0953923888889
 H1 0.917314 0.961766 0.11148  0.0953923888889
 H1 0.296561 0.143969 0.0233  0.0953923888889
 H1 0.796552 0.143974 0.02337  0.0953923888889
 H1 0.183561 0.066217 0.05196  0.0953923888889
 H1 0.683553 0.066222 0.05197  0.0953923888889
 H1 0.992005 0.08835 0.11441  0.0953923888889
 H1 0.491995 0.08835 0.1144  0.0953923888889
 H1 0.104083 0.164813 0.08434  0.0953923888889
 H1 0.604073 0.164815 0.08434  0.0953923888889
 H1 0.004338 0.209458 0.94656  0.0953923888889
 H1 0.504332 0.209453 0.9465  0.0953923888889
 H1 0.391635 0.135417 0.97681  0.0953923888889
 H1 0.891625 0.135425 0.97681  0.0953923888889
 H1 0.123394 0.264146 0.95755  0.0953923888889
 H1 0.623386 0.264148 0.95755  0.0953923888889
 H1 0.173058 0.182299 0.99008  0.0953923888889
 H1 0.67305 0.182299 0.99007  0.0953923888889
 H1 0.21051 0.424203 0.08465  0.0953923888889
 H1 0.710503 0.424201 0.08465  0.0953923888889
 H1 0.413952 0.465512 0.01069  0.0953923888889
 H1 0.913944 0.465509 0.01069  0.0953923888889
 H1 0.252431 0.278094 0.95202  0.0953923888889
 H1 0.752423 0.278093 0.95202  0.0953923888889
 C1 0.46906 0.35414 0.31611  -0.0474165
 C1 0.969052 0.354141 0.31611  -0.0474165
 C2 0.036584 0.374814 0.33712  -0.110679357143
 C2 0.536576 0.374814 0.33712  -0.110679357143
 C3 0.079314 0.449304 0.31944  0.2508735
 C3 0.579306 0.449304 0.31944  0.2508735
 C2 0.055215 0.499976 0.27976  -0.110679357143
 C2 0.555207 0.499976 0.27976  -0.110679357143
 C1 0.487461 0.479696 0.25983  -0.0474165
 C1 0.987453 0.479697 0.25983  -0.0474165
 C2 0.443359 0.407399 0.27831  -0.110679357143
 C2 0.943351 0.407399 0.27831  -0.110679357143
 C4 0.426496 0.272256 0.33328  0.716671
 C4 0.926488 0.272256 0.33328  0.716671
 C4 0.462097 0.533529 0.2176  0.716671
 C4 0.962089 0.533529 0.2176  0.716671
 C5 0.16735 0.428889 0.38126  0.0981835
 C5 0.667341 0.42889 0.38126  0.0981835
 C1 0.236081 0.473838 0.39929  -0.0474165
 C1 0.736072 0.473839 0.39929  -0.0474165
 C2 0.302893 0.445767 0.38282  -0.110679357143
 C2 0.802884 0.445762 0.38283  -0.110679357143
 C2 0.366508 0.48767 0.40004  -0.110679357143
 C2 0.866499 0.487664 0.40004  -0.110679357143
 C1 0.365574 0.559532 0.43407  -0.0474165
 C1 0.865565 0.559532 0.43407  -0.0474165
 C2 0.298355 0.587083 0.45055  -0.110679357143
 C2 0.798347 0.58709 0.45054  -0.110679357143
 C2 0.234903 0.544427 0.43370  -0.110679357143
 C2 0.734894 0.544435 0.43370  -0.110679357143
 C1 0.433115 0.604474 0.45211  -0.0474165
 C1 0.933107 0.604474 0.4521  -0.0474165
 C2 0.994555 0.614499 0.42248  -0.110679357143
 C2 0.494546 0.614506 0.42248  -0.110679357143
 C2 0.057822 0.657251 0.43962  -0.110679357143
 C2 0.557813 0.657259 0.4396  -0.110679357143
 C1 0.062119 0.690846 0.48712  -0.0474165
 C1 0.562111 0.690847 0.48712  -0.0474165
 C2 0.001124 0.681824 0.51662  -0.110679357143
 C2 0.501118 0.681818 0.51662  -0.110679357143
 C2 0.437639 0.639761 0.49932  -0.110679357143
 C2 0.937629 0.639767 0.49932  -0.110679357143
 C5 0.131012 0.734086 0.50646  0.0981835
 C5 0.631004 0.734086 0.50646  0.0981835
 C3 0.223409 0.844612 0.48072  0.2508735
 C3 0.723401 0.844613 0.48072  0.2508735
 C2 0.246729 0.909151 0.4456  -0.110679357143
 C2 0.74672 0.909152 0.4456  -0.110679357143
 C1 0.315423 0.95124 0.44891  -0.0474165
 C1 0.815415 0.951242 0.44891  -0.0474165
 C2 0.360249 0.932198 0.48803  -0.110679357143
 C2 0.86024 0.932201 0.48803  -0.110679357143
 C1 0.335833 0.870765 0.52381  -0.0474165
 C1 0.835824 0.870769 0.52381  -0.0474165
 C2 0.267762 0.825741 0.52002  -0.110679357143
 C2 0.767754 0.825743 0.52002  -0.110679357143
 C4 0.342956 0.015589 0.41077  0.716671
 C4 0.842947 0.015589 0.41077  0.716671
 C4 0.382451 0.853047 0.56680  0.716671
 C4 0.882442 0.85305 0.56680  0.716671
 C1 0.031429 0.14573 0.81620  -0.0474165
 C1 0.53142 0.145731 0.81620  -0.0474165
 C2 0.464019 0.124929 0.83756  -0.110679357143
 C2 0.964012 0.124928 0.83756  -0.110679357143
 C3 0.421218 0.050529 0.82010  0.2508735
 C3 0.921211 0.050528 0.82010  0.2508735
 C2 0.445177 0.999969 0.78030  -0.110679357143
 C2 0.945169 0.999968 0.78030  -0.110679357143
 C1 0.012864 0.020348 0.76003  -0.0474165
 C1 0.512856 0.02035 0.76003  -0.0474165
 C2 0.057024 0.09262 0.77829  -0.110679357143
 C2 0.557018 0.09262 0.77829  -0.110679357143
 C4 0.073856 0.227664 0.83322  0.716671
 C4 0.573848 0.227664 0.83322  0.716671
 C4 0.038094 0.966525 0.7177  0.716671
 C4 0.538086 0.966525 0.71774  0.716671
 C5 0.333303 0.071351 0.88218  0.0981835
 C5 0.833296 0.071352 0.88218  0.0981835
 C1 0.264305 0.026813 0.90022  -0.0474165
 C1 0.764298 0.026816 0.9002  -0.0474165
 C2 0.197736 0.055534 0.88384  -0.110679357143
 C2 0.697729 0.055535 0.88384  -0.110679357143
 C2 0.133878 0.013612 0.90088  -0.110679357143
 C2 0.633871 0.013614 0.90088  -0.110679357143
 C1 0.134369 0.941079 0.93463  -0.0474165
 C1 0.634361 0.941083 0.93463  -0.0474165
 C2 0.201352 0.912938 0.95105  -0.110679357143
 C2 0.701344 0.912943 0.9510  -0.110679357143
 C2 0.26503 0.955664 0.93442  -0.110679357143
 C2 0.765022 0.955669 0.93442  -0.110679357143
 C1 0.06662 0.895979 0.95244  -0.0474165
 C1 0.566611 0.895982 0.95245  -0.0474165
 C2 0.505376 0.886719 0.92279  -0.110679357143
 C2 0.0 0.886718 0.92279  -0.110679357143
 C2 0.441945 0.843757 0.93977  -0.110679357143
 C2 0.941935 0.843758 0.93977  -0.110679357143
 C1 0.437277 0.809359 0.98716  -0.0474165
 C1 0.937269 0.809358 0.98716  -0.0474165
 C2 0.498069 0.817628 0.01668  -0.110679357143
 C2 0.998062 0.817624 0.01668  -0.110679357143
 C2 0.061722 0.859814 0.99951  -0.110679357143
 C2 0.561713 0.85982 0.99951  -0.110679357143
 C5 0.368253 0.765853 0.00638  0.0981835
 C5 0.868245 0.765854 0.00638  0.0981835
 C3 0.276268 0.65541 0.98028  0.2508735
 C3 0.77626 0.655409 0.9802  0.2508735
 C2 0.25346 0.591227 0.94501  -0.110679357143
 C2 0.753453 0.591226 0.94501  -0.110679357143
 C1 0.184692 0.549211 0.94800  -0.0474165
 C1 0.684684 0.549209 0.9480  -0.0474165
 C2 0.139151 0.568142 0.98686  -0.110679357143
 C2 0.639144 0.56814 0.9868  -0.110679357143
 C1 0.162972 0.629345 0.02275  -0.0474165
 C1 0.662964 0.629344 0.02275  -0.0474165
 C2 0.231183 0.67422 0.01934  -0.110679357143
 C2 0.731175 0.674219 0.01934  -0.110679357143
 C4 0.157624 0.48513 0.90982  0.716671
 C4 0.657617 0.485128 0.9098  0.716671
 C4 0.115461 0.647006 0.06535  0.716671
 C4 0.615453 0.647006 0.06535  0.716671
 C1 0.030928 0.645839 0.68387  -0.0474165
 C1 0.530921 0.645839 0.68387  -0.0474165
 C2 0.463405 0.625164 0.66286  -0.110679357143
 C2 0.963398 0.625164 0.66286  -0.110679357143
 C3 0.420674 0.550676 0.68054  0.2508735
 C3 0.920667 0.550676 0.68054  0.2508735
 C2 0.444774 0.500004 0.72022  -0.110679357143
 C2 0.944766 0.500004 0.72022  -0.110679357143
 C1 0.012526 0.520285 0.74015  -0.0474165
 C1 0.512519 0.520285 0.74015  -0.0474165
 C2 0.056631 0.592578 0.72167  -0.110679357143
 C2 0.556623 0.592578 0.72167  -0.110679357143
 C4 0.073493 0.727723 0.66670  0.716671
 C4 0.573485 0.727723 0.66670  0.716671
 C4 0.037891 0.466451 0.78234  0.716671
 C4 0.537883 0.466451 0.78234  0.716671
 C5 0.332639 0.571085 0.61872  0.0981835
 C5 0.832632 0.571084 0.61872  0.0981835
 C1 0.263909 0.526131 0.60069  -0.0474165
 C1 0.763902 0.526131 0.60069  -0.0474165
 C2 0.197095 0.554204 0.61716  -0.110679357143
 C2 0.697089 0.554206 0.6171  -0.110679357143
 C2 0.133482 0.512298 0.59994  -0.110679357143
 C2 0.633475 0.512301 0.59994  -0.110679357143
 C1 0.134419 0.44043 0.56592  -0.0474165
 C1 0.634411 0.440431 0.5659  -0.0474165
 C2 0.201638 0.412876 0.54944  -0.110679357143
 C2 0.70163 0.412875 0.54944  -0.110679357143
 C2 0.265089 0.455536 0.56629  -0.110679357143
 C2 0.765082 0.455533 0.56629  -0.110679357143
 C1 0.066878 0.395486 0.54787  -0.0474165
 C1 0.56687 0.395488 0.54787  -0.0474165
 C2 0.505438 0.385459 0.57750  -0.110679357143
 C2 0.0 0.385456 0.57750  -0.110679357143
 C2 0.442171 0.342708 0.56037  -0.110679357143
 C2 0.942164 0.342705 0.56037  -0.110679357143
 C1 0.437873 0.30912 0.51286  -0.0474165
 C1 0.937866 0.309118 0.51286  -0.0474165
 C2 0.498867 0.318146 0.48336  -0.110679357143
 C2 0.99886 0.318145 0.48336  -0.110679357143
 C2 0.062356 0.360199 0.50066  -0.110679357143
 C2 0.562347 0.3602 0.50066  -0.110679357143
 C5 0.36898 0.265883 0.49352  0.0981835
 C5 0.868973 0.265881 0.49352  0.0981835
 C3 0.27658 0.15536 0.51926  0.2508735
 C3 0.776572 0.155361 0.51926  0.2508735
 C2 0.253261 0.090821 0.55437  -0.110679357143
 C2 0.753253 0.090822 0.55437  -0.110679357143
 C1 0.184567 0.048731 0.55107  -0.0474165
 C1 0.684559 0.048732 0.55107  -0.0474165
 C2 0.139743 0.06777 0.51195  -0.110679357143
 C2 0.639734 0.067773 0.51195  -0.110679357143
 C1 0.164159 0.129203 0.47617  -0.0474165
 C1 0.66415 0.129205 0.47617  -0.0474165
 C2 0.232228 0.174229 0.47996  -0.110679357143
 C2 0.73222 0.174231 0.47996  -0.110679357143
 C4 0.157034 0.984386 0.58921  0.716671
 C4 0.657026 0.984387 0.58921  0.716671
 C4 0.117541 0.146923 0.4331  0.716671
 C4 0.617532 0.146925 0.43319  0.716671
 C1 0.468561 0.85425 0.18379  -0.0474165
 C1 0.968553 0.854249 0.18379  -0.0474165
 C2 0.035972 0.87505 0.16243  -0.110679357143
 C2 0.535965 0.875048 0.16243  -0.110679357143
 C3 0.078772 0.94945 0.17989  0.2508735
 C3 0.578765 0.949448 0.17989  0.2508735
 C2 0.054813 1.1e-05 0.21968  -0.110679357143
 C2 0.554805 9e-06 0.21969  -0.110679357143
 C1 0.487124 0.979632 0.23996  -0.0474165
 C1 0.987117 0.979632 0.23996  -0.0474165
 C2 0.442964 0.90736 0.22170  -0.110679357143
 C2 0.942956 0.907361 0.22170  -0.110679357143
 C4 0.426133 0.772317 0.16676  0.716671
 C4 0.926125 0.772317 0.16676  0.716671
 C4 0.461894 0.033456 0.28224  0.716671
 C4 0.961887 0.033456 0.28224  0.716671
 C5 0.16669 0.928621 0.11781  0.0981835
 C5 0.666683 0.928622 0.1178  0.0981835
 C1 0.235687 0.973158 0.0997  -0.0474165
 C1 0.73568 0.97316 0.09977  -0.0474165
 C2 0.302257 0.94444 0.11615  -0.110679357143
 C2 0.80225 0.944442 0.1161  -0.110679357143
 C2 0.366114 0.986362 0.09911  -0.110679357143
 C2 0.866107 0.986365 0.09911  -0.110679357143
 C1 0.365623 0.058891 0.06536  -0.0474165
 C1 0.865615 0.058895 0.06536  -0.0474165
 C2 0.298639 0.087028 0.04893  -0.110679357143
 C2 0.79863 0.087033 0.04894  -0.110679357143
 C2 0.234961 0.044302 0.06557  -0.110679357143
 C2 0.734953 0.044306 0.06557  -0.110679357143
 C1 0.433371 0.103993 0.04754  -0.0474165
 C1 0.933363 0.103997 0.04754  -0.0474165
 C2 0.994617 0.113254 0.07720  -0.110679357143
 C2 0.494609 0.113253 0.077  -0.110679357143
 C2 0.058049 0.156214 0.06022  -0.110679357143
 C2 0.55804 0.156215 0.06022  -0.110679357143
 C1 0.062714 0.190618 0.01283  -0.0474165
 C1 0.562706 0.190617 0.01283  -0.0474165
 C2 0.001919 0.182355 0.98331  -0.110679357143
 C2 0.501912 0.182351 0.98331  -0.110679357143
 C2 0.438269 0.14016 0.00048  -0.110679357143
 C2 0.938259 0.140165 0.00048  -0.110679357143
 C5 0.131738 0.234122 0.99361  0.0981835
 C5 0.63173 0.234122 0.99361  0.0981835
 C3 0.223718 0.344577 0.01970  0.2508735
 C3 0.72371 0.344576 0.01970  0.2508735
 C2 0.246523 0.408762 0.05497  -0.110679357143
 C2 0.746516 0.40876 0.05497  -0.110679357143
 C1 0.315292 0.450781 0.05198  -0.0474165
 C1 0.815284 0.45078 0.05198  -0.0474165
 C2 0.360829 0.431859 0.01312  -0.110679357143
 C2 0.860822 0.431857 0.01312  -0.110679357143
 C1 0.337012 0.370653 0.97724  -0.0474165
 C1 0.837004 0.370651 0.97724  -0.0474165
 C2 0.268803 0.325772 0.98065  -0.110679357143
 C2 0.768795 0.325771 0.98065  -0.110679357143
 C4 0.342359 0.51486 0.09016  0.716671
 C4 0.842352 0.514859 0.09016  0.716671
 C4 0.384524 0.352995 0.93463  0.716671
 C4 0.884517 0.352994 0.93463  0.716671
 O1 0.368904 0.246226 0.31027  -0.621413642857
 O1 0.868896 0.246226 0.31027  -0.621413642857
 O1 0.447152 0.22702 0.37019  -0.621413642857
 O1 0.947144 0.227019 0.37019  -0.621413642857
 O2 0.1445 0.476763 0.33776  -0.2864065
 O2 0.644492 0.476763 0.33776  -0.2864065
 O2 0.15653 0.804642 0.4730  -0.2864065
 O2 0.656522 0.804643 0.4730  -0.2864065
 O3 0.368733 0.789018 0.59573  -0.6360065
 O3 0.868726 0.789019 0.59573  -0.6360065
 O1 0.438072 0.911293 0.57014  -0.621413642857
 O1 0.938062 0.911298 0.57014  -0.621413642857
 O1 0.4104 0.030269 0.40663  -0.621413642857
 O1 0.910391 0.030271 0.40663  -0.621413642857
 O1 0.394065 0.538607 0.21283  -0.621413642857
 O1 0.894057 0.538607 0.21283  -0.621413642857
 O1 0.009685 0.56992 0.18933  -0.621413642857
 O1 0.509677 0.569919 0.18933  -0.621413642857
 O1 0.296771 0.053631 0.38283  -0.621413642857
 O1 0.796763 0.053631 0.38283  -0.621413642857
 O1 0.131501 0.253871 0.81012  -0.621413642857
 O1 0.631493 0.253871 0.81012  -0.621413642857
 O1 0.053028 0.272819 0.87011  -0.621413642857
 O1 0.55302 0.272819 0.87011  -0.621413642857
 O2 0.356102 0.023106 0.83878  -0.2864065
 O2 0.856095 0.023104 0.83879  -0.2864065
 O2 0.343335 0.695236 0.97302  -0.2864065
 O2 0.843327 0.695235 0.97302  -0.2864065
 O3 0.128428 0.71125 0.09419  -0.6360065
 O3 0.62842 0.711249 0.09419  -0.6360065
 O1 0.059919 0.588613 0.06869  -0.621413642857
 O1 0.559911 0.588611 0.06869  -0.621413642857
 O1 0.09031 0.468974 0.90622  -0.621413642857
 O1 0.590303 0.468973 0.90622  -0.621413642857
 O1 0.106153 0.961388 0.71270  -0.621413642857
 O1 0.606146 0.961387 0.71270  -0.621413642857
 O1 0.490509 0.930249 0.68960  -0.621413642857
 O1 0.990501 0.93025 0.68960  -0.621413642857
 O1 0.203936 0.44844 0.88136  -0.621413642857
 O1 0.703928 0.448438 0.88136  -0.621413642857
 O1 0.131084 0.753754 0.6897  -0.621413642857
 O1 0.631076 0.753753 0.6897  -0.621413642857
 O1 0.052837 0.772961 0.62980  -0.621413642857
 O1 0.552829 0.77296 0.629  -0.621413642857
 O2 0.355487 0.523217 0.66223  -0.2864065
 O2 0.85548 0.523217 0.66223  -0.2864065
 O2 0.343458 0.195334 0.52690  -0.2864065
 O2 0.843451 0.195333 0.52690  -0.2864065
 O3 0.131255 0.210959 0.40425  -0.6360065
 O3 0.631247 0.21096 0.40425  -0.6360065
 O1 0.061923 0.088672 0.42984  -0.621413642857
 O1 0.561913 0.088676 0.42984  -0.621413642857
 O1 0.08959 0.969709 0.5933  -0.621413642857
 O1 0.589581 0.969711 0.5933  -0.621413642857
 O1 0.105924 0.461374 0.78715  -0.621413642857
 O1 0.605917 0.461374 0.78715  -0.621413642857
 O1 0.490305 0.430059 0.81065  -0.621413642857
 O1 0.990297 0.430059 0.81065  -0.621413642857
 O1 0.203218 0.946343 0.61715  -0.621413642857
 O1 0.70321 0.946341 0.61715  -0.621413642857
 O1 0.368487 0.746111 0.1898  -0.621413642857
 O1 0.868479 0.746111 0.1898  -0.621413642857
 O1 0.446961 0.727164 0.12988  -0.621413642857
 O1 0.946952 0.727163 0.12988  -0.621413642857
 O2 0.143889 0.976873 0.16120  -0.2864065
 O2 0.643883 0.976871 0.16121  -0.2864065
 O2 0.156653 0.304746 0.02697  -0.2864065
 O2 0.656645 0.304745 0.02697  -0.2864065
 O3 0.371567 0.28874 0.90579  -0.6360065
 O3 0.871559 0.28874 0.90579  -0.6360065
 O1 0.440057 0.411402 0.93129  -0.621413642857
 O1 0.94005 0.4114 0.93129  -0.621413642857
 O1 0.409674 0.53101 0.0937  -0.621413642857
 O1 0.909667 0.531009 0.0937  -0.621413642857
 O1 0.393835 0.038594 0.28729  -0.621413642857
 O1 0.893828 0.038594 0.28729  -0.621413642857
 O1 0.00948 0.069734 0.31038  -0.621413642857
 O1 0.509471 0.069735 0.31038  -0.621413642857
 O1 0.296049 0.551549 0.11862  -0.621413642857
 O1 0.796041 0.551548 0.11862  -0.621413642857
