#======================================================================

# CRYSTAL DATA

#----------------------------------------------------------------------

data_VESTA_phase_1


_pd_phase_name                         MOF
_cell_length_a                         18.34300
_cell_length_b                         19.75700
_cell_length_c                         19.75700
_cell_angle_alpha                      90.00000
_cell_angle_beta                       90.00000
_cell_angle_gamma                      89.99900
_symmetry_space_group_name_H-M         "P 1"
_symmetry_Int_Tables_number            1

loop_
_symmetry_equiv_pos_as_xyz
   "x, y, z"

loop_
   _atom_site_label
   _atom_site_fract_x
   _atom_site_fract_y
   _atom_site_fract_z
 _atom_site_charge
 Ba1 0.383445 0.81542 0.64744  1.64122764706
 Ba1 0.883435 0.815422 0.64743  1.64122764706
 Ba2 0.382644 0.685353 0.87615  1.55391264706
 Ba2 0.882636 0.685352 0.87615  1.55391264706
 Ba1 0.383449 0.184599 0.35257  1.64122764706
 Ba1 0.883441 0.184598 0.3525  1.64122764706
 Ba2 0.382643 0.314668 0.12386  1.55391264706
 Ba2 0.882636 0.314668 0.12386  1.55391264706
 Ba1 0.38345 0.35258 0.81542  1.64122764706
 Ba1 0.88344 0.352581 0.81542  1.64122764706
 Ba2 0.38265 0.123864 0.68535  1.55391264706
 Ba2 0.882639 0.123863 0.68535  1.55391264706
 Ba1 0.383443 0.64744 0.18460  1.64122764706
 Ba1 0.883437 0.647441 0.184  1.64122764706
 Ba2 0.382639 0.876157 0.31466  1.55391264706
 Ba2 0.882632 0.876156 0.31466  1.55391264706
 Ba1 0.133451 0.315411 0.85259  1.64122764706
 Ba1 0.633446 0.315412 0.8525  1.64122764706
 Ba2 0.13265 0.185343 0.62387  1.55391264706
 Ba2 0.632643 0.185343 0.62387  1.55391264706
 Ba1 0.133445 0.684608 0.14743  1.64122764706
 Ba1 0.63344 0.684609 0.14743  1.64122764706
 Ba2 0.132639 0.814677 0.37614  1.55391264706
 Ba2 0.632637 0.814678 0.37614  1.55391264706
 Ba1 0.133446 0.85259 0.68460  1.64122764706
 Ba1 0.63344 0.85259 0.68460  1.64122764706
 Ba2 0.132644 0.623873 0.81467  1.55391264706
 Ba2 0.63264 0.623874 0.81467  1.55391264706
 Ba1 0.133451 0.147431 0.3154  1.64122764706
 Ba1 0.633444 0.147431 0.31541  1.64122764706
 Ba2 0.132646 0.376147 0.18534  1.55391264706
 Ba2 0.63264 0.376147 0.18534  1.55391264706
 H1 0.331848 0.883891 0.00697  0.0845313970588
 H1 0.831842 0.883892 0.00697  0.0845313970588
 H1 0.37889 0.80953 0.0315  0.0845313970588
 H1 0.878885 0.80953 0.0315  0.0845313970588
 H1 0.236417 0.793179 0.0374  0.0845313970588
 H1 0.73641 0.793181 0.0374  0.0845313970588
 H1 0.216201 0.73311 0.97397  0.0845313970588
 H1 0.716197 0.733109 0.97397  0.0845313970588
 H1 0.222402 0.865609 0.92957  0.0845313970588
 H1 0.722396 0.86561 0.92957  0.0845313970588
 H1 0.298231 0.866535 0.87392  0.0845313970588
 H1 0.798225 0.866534 0.87392  0.0845313970588
 H1 0.456653 0.897253 0.97257  0.0845313970588
 H1 0.956647 0.897253 0.97257  0.0845313970588
 H1 0.404396 0.884623 0.89842  0.0845313970588
 H1 0.904391 0.884623 0.89842  0.0845313970588
 H1 0.054057 0.783623 0.85246  0.0845313970588
 H1 0.554049 0.783624 0.85246  0.0845313970588
 H1 0.040161 0.87007 0.86784  0.0845313970588
 H1 0.540154 0.87007 0.86784  0.0845313970588
 H1 0.987282 0.775424 0.02443  0.0845313970588
 H1 0.487275 0.775425 0.02443  0.0845313970588
 H1 0.062977 0.816237 0.98696  0.0845313970588
 H1 0.56297 0.816237 0.98696  0.0845313970588
 H1 0.331863 0.11613 0.99304  0.0845313970588
 H1 0.831855 0.11613 0.99304  0.0845313970588
 H1 0.378902 0.190491 0.96844  0.0845313970588
 H1 0.878895 0.190491 0.96844  0.0845313970588
 H1 0.236429 0.206844 0.96254  0.0845313970588
 H1 0.73642 0.206841 0.96254  0.0845313970588
 H1 0.216199 0.266911 0.02605  0.0845313970588
 H1 0.716195 0.266913 0.02604  0.0845313970588
 H1 0.222407 0.134413 0.07044  0.0845313970588
 H1 0.7224 0.134414 0.0704  0.0845313970588
 H1 0.298236 0.133486 0.12609  0.0845313970588
 H1 0.79823 0.133486 0.12609  0.0845313970588
 H1 0.456658 0.102768 0.02744  0.0845313970588
 H1 0.95665 0.102768 0.02744  0.0845313970588
 H1 0.404401 0.115398 0.10159  0.0845313970588
 H1 0.904395 0.115397 0.10159  0.0845313970588
 H1 0.054062 0.216398 0.14754  0.0845313970588
 H1 0.554053 0.216397 0.1475  0.0845313970588
 H1 0.040162 0.129951 0.13217  0.0845313970588
 H1 0.540157 0.129951 0.13217  0.0845313970588
 H1 0.987292 0.224598 0.97558  0.0845313970588
 H1 0.487286 0.224597 0.97558  0.0845313970588
 H1 0.062978 0.183782 0.01305  0.0845313970588
 H1 0.562972 0.183783 0.01305  0.0845313970588
 H1 0.331855 0.993046 0.88389  0.0845313970588
 H1 0.831846 0.993046 0.88389  0.0845313970588
 H1 0.378895 0.968441 0.80953  0.0845313970588
 H1 0.878888 0.968441 0.8095  0.0845313970588
 H1 0.236424 0.96254 0.79317  0.0845313970588
 H1 0.736413 0.962543 0.79318  0.0845313970588
 H1 0.216202 0.026053 0.73311  0.0845313970588
 H1 0.716204 0.026047 0.73310  0.0845313970588
 H1 0.222411 0.070448 0.86560  0.0845313970588
 H1 0.722405 0.070449 0.86560  0.0845313970588
 H1 0.29824 0.126094 0.86653  0.0845313970588
 H1 0.798232 0.126094 0.86653  0.0845313970588
 H1 0.456663 0.027444 0.89725  0.0845313970588
 H1 0.956654 0.027443 0.89725  0.0845313970588
 H1 0.404404 0.101595 0.88462  0.0845313970588
 H1 0.904398 0.101594 0.88462  0.0845313970588
 H1 0.054068 0.147545 0.78362  0.0845313970588
 H1 0.554053 0.147553 0.78362  0.0845313970588
 H1 0.040164 0.132178 0.87006  0.0845313970588
 H1 0.540164 0.132172 0.87006  0.0845313970588
 H1 0.987285 0.975583 0.77542  0.0845313970588
 H1 0.487279 0.975584 0.77542  0.0845313970588
 H1 0.062985 0.013058 0.81623  0.0845313970588
 H1 0.562977 0.013058 0.81623  0.0845313970588
 H1 0.331857 0.006975 0.1161  0.0845313970588
 H1 0.831851 0.006976 0.11612  0.0845313970588
 H1 0.378897 0.03158 0.1904  0.0845313970588
 H1 0.878892 0.03158 0.1904  0.0845313970588
 H1 0.236425 0.03748 0.20684  0.0845313970588
 H1 0.736417 0.03748 0.20684  0.0845313970588
 H1 0.216193 0.97397 0.26691  0.0845313970588
 H1 0.71619 0.973973 0.26691  0.0845313970588
 H1 0.222399 0.929572 0.13441  0.0845313970588
 H1 0.722391 0.929575 0.13441  0.0845313970588
 H1 0.29823 0.873928 0.13348  0.0845313970588
 H1 0.798222 0.873928 0.13348  0.0845313970588
 H1 0.456649 0.972579 0.10276  0.0845313970588
 H1 0.956643 0.972577 0.10276  0.0845313970588
 H1 0.404394 0.898427 0.11539  0.0845313970588
 H1 0.904388 0.898427 0.11539  0.0845313970588
 H1 0.054052 0.852468 0.21639  0.0845313970588
 H1 0.554047 0.852469 0.21639  0.0845313970588
 H1 0.040158 0.867847 0.12995  0.0845313970588
 H1 0.54015 0.867846 0.12995  0.0845313970588
 H1 0.987289 0.024437 0.22459  0.0845313970588
 H1 0.487282 0.024437 0.22459  0.0845313970588
 H1 0.062971 0.986962 0.18378  0.0845313970588
 H1 0.562964 0.986963 0.18378  0.0845313970588
 H1 0.081859 0.383881 0.49303  0.0845313970588
 H1 0.581853 0.383881 0.49303  0.0845313970588
 H1 0.128902 0.30952 0.46843  0.0845313970588
 H1 0.628895 0.30952 0.46843  0.0845313970588
 H1 0.486421 0.29317 0.46253  0.0845313970588
 H1 0.986415 0.29317 0.46253  0.0845313970588
 H1 0.4662 0.2331 0.5260  0.0845313970588
 H1 0.966194 0.2331 0.52605  0.0845313970588
 H1 0.472403 0.365599 0.57045  0.0845313970588
 H1 0.972396 0.365598 0.57045  0.0845313970588
 H1 0.048239 0.366525 0.62610  0.0845313970588
 H1 0.548232 0.366524 0.62610  0.0845313970588
 H1 0.206659 0.397243 0.52745  0.0845313970588
 H1 0.706652 0.397242 0.52745  0.0845313970588
 H1 0.154403 0.384613 0.60160  0.0845313970588
 H1 0.654396 0.384612 0.60160  0.0845313970588
 H1 0.304058 0.283613 0.6475  0.0845313970588
 H1 0.804053 0.283611 0.64755  0.0845313970588
 H1 0.29016 0.370059 0.63218  0.0845313970588
 H1 0.790153 0.370058 0.63218  0.0845313970588
 H1 0.237286 0.275415 0.47557  0.0845313970588
 H1 0.73728 0.275414 0.47557  0.0845313970588
 H1 0.312976 0.316226 0.51306  0.0845313970588
 H1 0.81297 0.316227 0.51306  0.0845313970588
 H1 0.081856 0.616139 0.50698  0.0845313970588
 H1 0.581852 0.61614 0.50698  0.0845313970588
 H1 0.128897 0.690502 0.5315  0.0845313970588
 H1 0.628891 0.690501 0.5315  0.0845313970588
 H1 0.486418 0.706854 0.5374  0.0845313970588
 H1 0.986405 0.706848 0.53748  0.0845313970588
 H1 0.466193 0.766922 0.47396  0.0845313970588
 H1 0.966197 0.76693 0.47396  0.0845313970588
 H1 0.472401 0.634423 0.42956  0.0845313970588
 H1 0.972393 0.634424 0.42956  0.0845313970588
 H1 0.048234 0.633497 0.37391  0.0845313970588
 H1 0.548231 0.633497 0.37391  0.0845313970588
 H1 0.206656 0.602778 0.47256  0.0845313970588
 H1 0.706652 0.602779 0.47256  0.0845313970588
 H1 0.154402 0.615407 0.39841  0.0845313970588
 H1 0.654395 0.615408 0.39841  0.0845313970588
 H1 0.304061 0.716407 0.35246  0.0845313970588
 H1 0.804045 0.716408 0.35245  0.0845313970588
 H1 0.290151 0.629961 0.3678  0.0845313970588
 H1 0.790152 0.629962 0.36783  0.0845313970588
 H1 0.23728 0.724605 0.52444  0.0845313970588
 H1 0.737276 0.724608 0.52444  0.0845313970588
 H1 0.312973 0.683792 0.48695  0.0845313970588
 H1 0.812966 0.683792 0.48695  0.0845313970588
 H1 0.081858 0.493035 0.6161  0.0845313970588
 H1 0.581853 0.493036 0.6161  0.0845313970588
 H1 0.128901 0.468431 0.69050  0.0845313970588
 H1 0.628895 0.468431 0.69050  0.0845313970588
 H1 0.48642 0.462533 0.70685  0.0845313970588
 H1 0.986411 0.462534 0.70684  0.0845313970588
 H1 0.4662 0.526059 0.76692  0.0845313970588
 H1 0.9662 0.526054 0.76692  0.0845313970588
 H1 0.472402 0.570459 0.63442  0.0845313970588
 H1 0.972394 0.57046 0.63442  0.0845313970588
 H1 0.048235 0.626103 0.63349  0.0845313970588
 H1 0.54823 0.626103 0.63349  0.0845313970588
 H1 0.206657 0.527453 0.60277  0.0845313970588
 H1 0.706652 0.527453 0.60277  0.0845313970588
 H1 0.154402 0.601604 0.61540  0.0845313970588
 H1 0.654395 0.601605 0.61540  0.0845313970588
 H1 0.304061 0.647554 0.71640  0.0845313970588
 H1 0.80405 0.647558 0.71640  0.0845313970588
 H1 0.290154 0.632189 0.62996  0.0845313970588
 H1 0.790151 0.632186 0.62996  0.0845313970588
 H1 0.237284 0.475572 0.72460  0.0845313970588
 H1 0.737279 0.475574 0.72460  0.0845313970588
 H1 0.312975 0.513066 0.68379  0.0845313970588
 H1 0.812969 0.513067 0.68379  0.0845313970588
 H1 0.081857 0.506986 0.38388  0.0845313970588
 H1 0.581851 0.506986 0.38388  0.0845313970588
 H1 0.128898 0.53159 0.3095  0.0845313970588
 H1 0.628891 0.53159 0.3095  0.0845313970588
 H1 0.486418 0.53749 0.29316  0.0845313970588
 H1 0.986411 0.53749 0.29316  0.0845313970588
 H1 0.466195 0.473961 0.233  0.0845313970588
 H1 0.966189 0.473961 0.233  0.0845313970588
 H1 0.472402 0.429563 0.36559  0.0845313970588
 H1 0.972395 0.429563 0.36559  0.0845313970588
 H1 0.048238 0.373917 0.36652  0.0845313970588
 H1 0.548232 0.373916 0.36652  0.0845313970588
 H1 0.206658 0.472567 0.39724  0.0845313970588
 H1 0.706651 0.472568 0.39724  0.0845313970588
 H1 0.154403 0.398417 0.38461  0.0845313970588
 H1 0.654397 0.398417 0.38461  0.0845313970588
 H1 0.304054 0.352458 0.28361  0.0845313970588
 H1 0.80405 0.352459 0.28361  0.0845313970588
 H1 0.29016 0.367837 0.37005  0.0845313970588
 H1 0.790152 0.367835 0.37005  0.0845313970588
 H1 0.237282 0.524448 0.27541  0.0845313970588
 H1 0.737276 0.524447 0.27541  0.0845313970588
 H1 0.312973 0.486951 0.31622  0.0845313970588
 H1 0.812967 0.486951 0.31622  0.0845313970588
 C1 0.359386 0.837834 0.98729  -0.135694019608
 C1 0.85938 0.837835 0.98729  -0.135694019608
 C1 0.261507 0.758114 0.  -0.135694019608
 C1 0.761502 0.758116 0.  -0.135694019608
 C2 0.302231 0.702893 0.03949  0.764439313725
 C2 0.802225 0.702895 0.039  0.764439313725
 C1 0.262585 0.832902 0.9032  -0.135694019608
 C1 0.762579 0.832902 0.9032  -0.135694019608
 C3 0.221433 0.790411 0.8505  0.710052647059
 C3 0.721426 0.79041 0.85058  0.710052647059
 C1 0.424155 0.859191 0.94424  -0.135694019608
 C1 0.924149 0.859191 0.94424  -0.135694019608
 C1 0.011212 0.821225 0.86167  -0.135694019608
 C1 0.511205 0.821226 0.86167  -0.135694019608
 C2 0.465354 0.824672 0.79698  0.764439313725
 C2 0.965348 0.824671 0.79698  0.764439313725
 C1 0.018616 0.779316 0.9772  -0.135694019608
 C1 0.518609 0.779316 0.9772  -0.135694019608
 C3 0.05392 0.70937 0.96704  0.710052647059
 C3 0.553913 0.70937 0.96704  0.710052647059
 C1 0.35939 0.162186 0.01273  -0.135694019608
 C1 0.859385 0.162185 0.0127  -0.135694019608
 C1 0.261506 0.241908 0.99961  -0.135694019608
 C1 0.761501 0.241906 0.99961  -0.135694019608
 C2 0.302238 0.297129 0.96052  0.764439313725
 C2 0.802233 0.297126 0.96052  0.764439313725
 C1 0.262589 0.16712 0.09673  -0.135694019608
 C1 0.762583 0.16712 0.09673  -0.135694019608
 C3 0.221434 0.209611 0.14944  0.710052647059
 C3 0.721427 0.209611 0.14944  0.710052647059
 C1 0.42416 0.14083 0.05577  -0.135694019608
 C1 0.924155 0.140831 0.05577  -0.135694019608
 C1 0.011215 0.178798 0.1383  -0.135694019608
 C1 0.511208 0.178796 0.13834  -0.135694019608
 C2 0.465357 0.175351 0.20303  0.764439313725
 C2 0.965351 0.175352 0.20303  0.764439313725
 C1 0.018616 0.220704 0.0228  -0.135694019608
 C1 0.51861 0.220705 0.02281  -0.135694019608
 C3 0.053917 0.29065 0.03297  0.710052647059
 C3 0.553912 0.29065 0.03297  0.710052647059
 C1 0.359395 0.012731 0.83783  -0.135694019608
 C1 0.859391 0.01273 0.83783  -0.135694019608
 C1 0.261511 0.999612 0.75811  -0.135694019608
 C1 0.761509 0.99961 0.75811  -0.135694019608
 C2 0.302231 0.960524 0.70289  0.764439313725
 C2 0.802226 0.960521 0.70289  0.764439313725
 C1 0.262594 0.096732 0.83290  -0.135694019608
 C1 0.762586 0.096734 0.83290  -0.135694019608
 C3 0.221439 0.149441 0.79041  0.710052647059
 C3 0.72143 0.149442 0.7904  0.710052647059
 C1 0.424163 0.055777 0.85919  -0.135694019608
 C1 0.924159 0.055778 0.8591  -0.135694019608
 C1 0.011219 0.13835 0.82122  -0.135694019608
 C1 0.511211 0.138348 0.82122  -0.135694019608
 C2 0.465359 0.203034 0.82467  0.764439313725
 C2 0.965354 0.203036 0.82466  0.764439313725
 C1 0.018622 0.02281 0.77931  -0.135694019608
 C1 0.518616 0.022812 0.77931  -0.135694019608
 C3 0.053923 0.032976 0.7093  0.710052647059
 C3 0.55392 0.032977 0.7093  0.710052647059
 C1 0.359382 0.98729 0.16218  -0.135694019608
 C1 0.859374 0.98729 0.16218  -0.135694019608
 C1 0.261499 0.0 0.24190  -0.135694019608
 C1 0.761495 0.0 0.24190  -0.135694019608
 C2 0.302237 0.039498 0.29712  0.764439313725
 C2 0.802232 0.0395 0.29712  0.764439313725
 C1 0.262583 0.903289 0.1671  -0.135694019608
 C1 0.762574 0.90329 0.16711  -0.135694019608
 C3 0.221429 0.85058 0.20961  0.710052647059
 C3 0.721423 0.85058 0.20961  0.710052647059
 C1 0.424152 0.944244 0.1408  -0.135694019608
 C1 0.924144 0.944245 0.1408  -0.135694019608
 C1 0.011208 0.861672 0.17879  -0.135694019608
 C1 0.511202 0.861672 0.17879  -0.135694019608
 C2 0.465352 0.796986 0.1753  0.764439313725
 C2 0.965344 0.796986 0.17534  0.764439313725
 C1 0.01861 0.97721 0.22070  -0.135694019608
 C1 0.518603 0.97721 0.22070  -0.135694019608
 C3 0.053913 0.967045 0.29065  0.710052647059
 C3 0.553907 0.967044 0.2906  0.710052647059
 C1 0.109393 0.337825 0.51274  -0.135694019608
 C1 0.609388 0.337825 0.51274  -0.135694019608
 C1 0.011513 0.258105 0.49962  -0.135694019608
 C1 0.511506 0.258104 0.49962  -0.135694019608
 C2 0.052241 0.202884 0.46051  0.764439313725
 C2 0.552234 0.202884 0.46051  0.764439313725
 C1 0.012593 0.332891 0.59674  -0.135694019608
 C1 0.512586 0.332891 0.59674  -0.135694019608
 C3 0.471432 0.2904 0.64945  0.710052647059
 C3 0.971426 0.2904 0.64945  0.710052647059
 C1 0.174162 0.35918 0.55578  -0.135694019608
 C1 0.674157 0.35918 0.55578  -0.135694019608
 C1 0.261212 0.321214 0.63835  -0.135694019608
 C1 0.761206 0.321213 0.6383  -0.135694019608
 C2 0.215361 0.324659 0.70304  0.764439313725
 C2 0.715355 0.324659 0.70304  0.764439313725
 C1 0.268615 0.279306 0.5228  -0.135694019608
 C1 0.768609 0.279306 0.52282  -0.135694019608
 C3 0.303918 0.209359 0.53298  0.710052647059
 C3 0.803912 0.20936 0.53298  0.710052647059
 C1 0.109392 0.662194 0.48728  -0.135694019608
 C1 0.609385 0.662196 0.4872  -0.135694019608
 C1 0.011512 0.741913 0.50040  -0.135694019608
 C1 0.5115 0.741918 0.50039  -0.135694019608
 C2 0.052238 0.797133 0.53951  0.764439313725
 C2 0.552228 0.797138 0.53950  0.764439313725
 C1 0.012587 0.667131 0.40327  -0.135694019608
 C1 0.512584 0.66713 0.40327  -0.135694019608
 C3 0.471428 0.709621 0.35057  0.710052647059
 C3 0.971419 0.709622 0.35056  0.710052647059
 C1 0.174161 0.640842 0.44423  -0.135694019608
 C1 0.674154 0.640841 0.44423  -0.135694019608
 C1 0.261209 0.678811 0.3616  -0.135694019608
 C1 0.761201 0.678806 0.36166  -0.135694019608
 C2 0.215358 0.675367 0.29697  0.764439313725
 C2 0.71535 0.675359 0.29697  0.764439313725
 C1 0.268609 0.720713 0.47720  -0.135694019608
 C1 0.768605 0.720715 0.47719  -0.135694019608
 C3 0.303909 0.79066 0.46703  0.710052647059
 C3 0.803907 0.79066 0.46703  0.710052647059
 C1 0.109396 0.51274 0.66219  -0.135694019608
 C1 0.609389 0.512741 0.66219  -0.135694019608
 C1 0.011515 0.499619 0.74191  -0.135694019608
 C1 0.511506 0.499621 0.74191  -0.135694019608
 C2 0.052242 0.460509 0.79713  0.764439313725
 C2 0.552234 0.460512 0.79713  0.764439313725
 C1 0.01259 0.596744 0.66713  -0.135694019608
 C1 0.512584 0.596743 0.66713  -0.135694019608
 C3 0.471429 0.649452 0.70962  0.710052647059
 C3 0.971421 0.649453 0.70962  0.710052647059
 C1 0.174164 0.555788 0.64084  -0.135694019608
 C1 0.674158 0.555789 0.64084  -0.135694019608
 C1 0.261211 0.63836 0.6788  -0.135694019608
 C1 0.761204 0.63836 0.67880  -0.135694019608
 C2 0.215359 0.703046 0.67536  0.764439313725
 C2 0.715352 0.703045 0.67536  0.764439313725
 C1 0.268613 0.522819 0.72071  -0.135694019608
 C1 0.768608 0.52282 0.72071  -0.135694019608
 C3 0.303915 0.532986 0.7906  0.710052647059
 C3 0.80391 0.532987 0.79066  0.710052647059
 C1 0.109389 0.48728 0.33782  -0.135694019608
 C1 0.609383 0.48728 0.33782  -0.135694019608
 C1 0.011508 0.5004 0.25810  -0.135694019608
 C1 0.511502 0.500399 0.25810  -0.135694019608
 C2 0.052237 0.539509 0.20288  0.764439313725
 C2 0.552229 0.539508 0.20288  0.764439313725
 C1 0.012591 0.403279 0.33289  -0.135694019608
 C1 0.512584 0.403279 0.33289  -0.135694019608
 C3 0.47143 0.350571 0.290  0.710052647059
 C3 0.971424 0.35057 0.290  0.710052647059
 C1 0.174159 0.444235 0.35918  -0.135694019608
 C1 0.674154 0.444235 0.35918  -0.135694019608
 C1 0.26121 0.361661 0.32121  -0.135694019608
 C1 0.761204 0.361661 0.32121  -0.135694019608
 C2 0.21536 0.296976 0.32466  0.764439313725
 C2 0.715354 0.296976 0.32465  0.764439313725
 C1 0.268611 0.4772 0.27930  -0.135694019608
 C1 0.768605 0.477199 0.27930  -0.135694019608
 C3 0.303914 0.467035 0.2093  0.710052647059
 C3 0.803908 0.467035 0.2093  0.710052647059
 N1 0.307255 0.794042 0.95115  -0.247592352941
 N1 0.80725 0.794043 0.95115  -0.247592352941
 N1 0.47013 0.802068 0.92241  -0.247592352941
 N1 0.970123 0.802068 0.92241  -0.247592352941
 N1 0.307258 0.205978 0.04886  -0.247592352941
 N1 0.807252 0.205976 0.04886  -0.247592352941
 N1 0.470132 0.197953 0.07760  -0.247592352941
 N1 0.970126 0.197955 0.07760  -0.247592352941
 N1 0.307262 0.048869 0.79404  -0.247592352941
 N1 0.807257 0.048868 0.79404  -0.247592352941
 N1 0.470136 0.077608 0.80206  -0.247592352941
 N1 0.970131 0.07761 0.80206  -0.247592352941
 N1 0.307251 0.951152 0.20597  -0.247592352941
 N1 0.807244 0.951151 0.20597  -0.247592352941
 N1 0.470125 0.922412 0.19795  -0.247592352941
 N1 0.970119 0.922412 0.19795  -0.247592352941
 N1 0.057263 0.294033 0.5488  -0.247592352941
 N1 0.557256 0.294033 0.54887  -0.247592352941
 N1 0.220136 0.302057 0.57761  -0.247592352941
 N1 0.72013 0.302055 0.57761  -0.247592352941
 N1 0.057259 0.705984 0.45114  -0.247592352941
 N1 0.557252 0.705989 0.45114  -0.247592352941
 N1 0.220133 0.697966 0.42240  -0.247592352941
 N1 0.720126 0.697964 0.42240  -0.247592352941
 N1 0.057262 0.548878 0.70598  -0.247592352941
 N1 0.557255 0.548878 0.70598  -0.247592352941
 N1 0.220135 0.57762 0.69796  -0.247592352941
 N1 0.720128 0.57762 0.69796  -0.247592352941
 N1 0.057259 0.451141 0.29403  -0.247592352941
 N1 0.557253 0.451141 0.29403  -0.247592352941
 N1 0.220134 0.422402 0.30205  -0.247592352941
 N1 0.720128 0.422402 0.30205  -0.247592352941
 O1 0.361933 0.679894 0.01690  -0.729197352941
 O1 0.861924 0.679892 0.01690  -0.729197352941
 O2 0.272138 0.683127 0.09446  -0.743189352941
 O2 0.772131 0.683125 0.09446  -0.743189352941
 O2 0.234517 0.726942 0.84776  -0.743189352941
 O2 0.734512 0.726942 0.84776  -0.743189352941
 O1 0.177338 0.822609 0.81350  -0.729197352941
 O1 0.677333 0.82261 0.81350  -0.729197352941
 O2 0.40013 0.802735 0.79714  -0.743189352941
 O2 0.900124 0.802737 0.79714  -0.743189352941
 O2 0.496516 0.849492 0.74489  -0.743189352941
 O2 0.99651 0.849492 0.74489  -0.743189352941
 O1 0.10008 0.691854 0.01113  -0.729197352941
 O1 0.600073 0.691854 0.01113  -0.729197352941
 O2 0.034838 0.674574 0.91542  -0.743189352941
 O2 0.534831 0.674574 0.91542  -0.743189352941
 O1 0.361941 0.320124 0.98311  -0.729197352941
 O1 0.861932 0.320127 0.98311  -0.729197352941
 O2 0.272145 0.316892 0.90555  -0.743189352941
 O2 0.772138 0.316895 0.9055  -0.743189352941
 O2 0.234518 0.273079 0.15225  -0.743189352941
 O2 0.734512 0.273079 0.15225  -0.743189352941
 O1 0.17734 0.177413 0.18651  -0.729197352941
 O1 0.677332 0.177413 0.18651  -0.729197352941
 O2 0.400132 0.197283 0.20287  -0.743189352941
 O2 0.900124 0.19728 0.20287  -0.743189352941
 O2 0.49652 0.150526 0.25512  -0.743189352941
 O2 0.996512 0.150523 0.2551  -0.743189352941
 O1 0.100088 0.308166 0.98888  -0.729197352941
 O1 0.600082 0.308166 0.98888  -0.729197352941
 O2 0.034837 0.325446 0.08459  -0.743189352941
 O2 0.53483 0.325446 0.08459  -0.743189352941
 O1 0.361937 0.983109 0.67989  -0.729197352941
 O1 0.861923 0.983116 0.67989  -0.729197352941
 O2 0.27214 0.905558 0.68313  -0.743189352941
 O2 0.772131 0.905561 0.68312  -0.743189352941
 O2 0.234521 0.152255 0.72694  -0.743189352941
 O2 0.734517 0.152254 0.72694  -0.743189352941
 O1 0.177342 0.186511 0.82260  -0.729197352941
 O1 0.677335 0.186512 0.82260  -0.729197352941
 O2 0.400137 0.20288 0.80273  -0.743189352941
 O2 0.900125 0.202879 0.80274  -0.743189352941
 O2 0.496523 0.255123 0.84948  -0.743189352941
 O2 0.996513 0.25512 0.849  -0.743189352941
 O1 0.100082 0.988885 0.69185  -0.729197352941
 O1 0.600074 0.988883 0.69185  -0.729197352941
 O2 0.034844 0.084595 0.67457  -0.743189352941
 O2 0.534834 0.084593 0.67457  -0.743189352941
 O1 0.361942 0.016909 0.32012  -0.729197352941
 O1 0.861931 0.016906 0.32012  -0.729197352941
 O2 0.272144 0.094463 0.31689  -0.743189352941
 O2 0.772137 0.094462 0.31689  -0.743189352941
 O2 0.234514 0.847767 0.27307  -0.743189352941
 O2 0.734507 0.847766 0.27307  -0.743189352941
 O1 0.177334 0.81351 0.17741  -0.729197352941
 O1 0.67733 0.813509 0.17741  -0.729197352941
 O2 0.400127 0.797142 0.19728  -0.743189352941
 O2 0.900121 0.797141 0.19728  -0.743189352941
 O2 0.496514 0.744899 0.15052  -0.743189352941
 O2 0.996508 0.744898 0.15052  -0.743189352941
 O1 0.100087 0.011136 0.30816  -0.729197352941
 O1 0.60008 0.011137 0.30816  -0.729197352941
 O2 0.034833 0.915426 0.32544  -0.743189352941
 O2 0.534825 0.915428 0.32544  -0.743189352941
 O1 0.111942 0.179884 0.48310  -0.729197352941
 O1 0.611936 0.179885 0.48310  -0.729197352941
 O2 0.022147 0.183117 0.4055  -0.743189352941
 O2 0.52214 0.183117 0.40554  -0.743189352941
 O2 0.484518 0.226932 0.65226  -0.743189352941
 O2 0.984511 0.226932 0.65226  -0.743189352941
 O1 0.427337 0.322599 0.68652  -0.729197352941
 O1 0.92733 0.322599 0.68652  -0.729197352941
 O2 0.150136 0.302728 0.7028  -0.743189352941
 O2 0.650129 0.302729 0.70288  -0.743189352941
 O2 0.246523 0.349484 0.75513  -0.743189352941
 O2 0.746516 0.349485 0.75513  -0.743189352941
 O1 0.350085 0.191844 0.48887  -0.729197352941
 O1 0.850077 0.191844 0.48887  -0.729197352941
 O2 0.284838 0.174565 0.58460  -0.743189352941
 O2 0.784832 0.174563 0.58460  -0.743189352941
 O1 0.111928 0.820144 0.51691  -0.729197352941
 O1 0.611931 0.820134 0.51691  -0.729197352941
 O2 0.022139 0.816911 0.5944  -0.743189352941
 O2 0.522136 0.816903 0.59447  -0.743189352941
 O2 0.484512 0.773089 0.34775  -0.743189352941
 O2 0.984508 0.773089 0.34775  -0.743189352941
 O1 0.427334 0.677423 0.31349  -0.729197352941
 O1 0.927328 0.677421 0.31349  -0.729197352941
 O2 0.150127 0.697285 0.29713  -0.743189352941
 O2 0.650126 0.697295 0.29713  -0.743189352941
 O2 0.246516 0.650527 0.24489  -0.743189352941
 O2 0.746513 0.650538 0.24488  -0.743189352941
 O1 0.350078 0.808175 0.51114  -0.729197352941
 O1 0.85007 0.808177 0.51114  -0.729197352941
 O2 0.284833 0.825455 0.41541  -0.743189352941
 O2 0.784822 0.825457 0.41541  -0.743189352941
 O1 0.111934 0.483108 0.82014  -0.729197352941
 O1 0.611933 0.483104 0.82013  -0.729197352941
 O2 0.022145 0.405552 0.8169  -0.743189352941
 O2 0.52214 0.40555 0.81690  -0.743189352941
 O2 0.484515 0.652265 0.77308  -0.743189352941
 O2 0.98451 0.652264 0.77308  -0.743189352941
 O1 0.427333 0.686522 0.67742  -0.729197352941
 O1 0.927326 0.686523 0.67742  -0.729197352941
 O2 0.150129 0.702888 0.69728  -0.743189352941
 O2 0.650125 0.702889 0.69729  -0.743189352941
 O2 0.246516 0.755129 0.65052  -0.743189352941
 O2 0.746512 0.755131 0.65053  -0.743189352941
 O1 0.350082 0.488875 0.80817  -0.729197352941
 O1 0.850075 0.488874 0.80817  -0.729197352941
 O2 0.284836 0.584605 0.82545  -0.743189352941
 O2 0.784828 0.584604 0.82545  -0.743189352941
 O1 0.111939 0.516918 0.17988  -0.729197352941
 O1 0.611933 0.516919 0.17988  -0.729197352941
 O2 0.022142 0.594472 0.18311  -0.743189352941
 O2 0.522136 0.594472 0.18311  -0.743189352941
 O2 0.484516 0.347756 0.22693  -0.743189352941
 O2 0.984508 0.347756 0.22693  -0.743189352941
 O1 0.427338 0.313499 0.32259  -0.729197352941
 O1 0.927331 0.313499 0.32259  -0.729197352941
 O2 0.150136 0.297131 0.30272  -0.743189352941
 O2 0.650128 0.297132 0.30272  -0.743189352941
 O2 0.246523 0.244888 0.34948  -0.743189352941
 O2 0.746516 0.244889 0.34948  -0.743189352941
 O1 0.35008 0.511147 0.19184  -0.729197352941
 O1 0.850073 0.511147 0.19184  -0.729197352941
 O2 0.284834 0.415417 0.17456  -0.743189352941
 O2 0.784827 0.415417 0.17456  -0.743189352941
