#======================================================================

# CRYSTAL DATA

#----------------------------------------------------------------------

data_VESTA_phase_1


_pd_phase_name                         MOF
_cell_length_a                         14.01900
_cell_length_b                         14.61500
_cell_length_c                         16.67100
_cell_angle_alpha                      116.04400
_cell_angle_beta                       88.38000
_cell_angle_gamma                      90.02400
_symmetry_space_group_name_H-M         "P 1"
_symmetry_Int_Tables_number            1

loop_
_symmetry_equiv_pos_as_xyz
   "x, y, z"

loop_
   _atom_site_label
   _atom_site_fract_x
   _atom_site_fract_y
   _atom_site_fract_z
 _atom_site_charge
 La1 0.490508 0.898933 0.37440  2.13363015625
 La1 0.00893 0.524068 0.62545  2.13363015625
 La1 0.50954 0.101053 0.62565  2.13363015625
 La1 0.991183 0.475936 0.37459  2.13363015625
 H1 0.524064 0.664434 0.05091  0.10402921875
 H1 0.565714 0.623091 0.89151  0.10402921875
 H1 0.578852 0.943287 0.96023  0.10402921875
 H1 0.534682 0.983967 0.11964  0.10402921875
 H1 0.606504 0.670895 0.77873  0.10402921875
 H1 0.544532 0.885818 0.67871  0.10402921875
 H1 0.747718 0.679317 0.70275  0.10402921875
 H1 0.711975 0.680153 0.44771  0.10402921875
 H1 0.976138 0.612982 0.948  0.10402921875
 H1 0.934197 0.730827 0.10806  0.10402921875
 H1 0.921157 0.982811 0.04017  0.10402921875
 H1 0.965655 0.864289 0.88070  0.10402921875
 H1 0.89375 0.8914 0.22117  0.10402921875
 H1 0.952122 0.207849 0.32087  0.10402921875
 H1 0.753102 0.973913 0.29782  0.10402921875
 H1 0.787596 0.230976 0.55258  0.10402921875
 H1 0.475987 0.33557 0.94914  0.10402921875
 H1 0.434389 0.376915 0.10855  0.10402921875
 H1 0.421331 0.05672 0.03985  0.10402921875
 H1 0.465453 0.016037 0.88043  0.10402921875
 H1 0.393653 0.329109 0.22134  0.10402921875
 H1 0.455552 0.114163 0.32136  0.10402921875
 H1 0.252428 0.320703 0.29729  0.10402921875
 H1 0.2881 0.319857 0.55234  0.10402921875
 H1 0.023851 0.387017 0.05144  0.10402921875
 H1 0.06578 0.269168 0.89198  0.10402921875
 H1 0.078849 0.017191 0.95987  0.10402921875
 H1 0.034359 0.135717 0.1193  0.10402921875
 H1 0.106243 0.108599 0.77887  0.10402921875
 H1 0.047906 0.792153 0.67916  0.10402921875
 H1 0.24692 0.026105 0.70225  0.10402921875
 H1 0.212441 0.769058 0.44747  0.10402921875
 C1 0.503374 0.850902 0.18895  0.71593265625
 C2 0.527023 0.826338 0.09404  -0.10654984375
 C3 0.535742 0.724588 0.03003  -0.0737287723214
 C3 0.559045 0.70219 0.94169  -0.0737287723214
 C2 0.574248 0.780879 0.91592  -0.10654984375
 C3 0.566026 0.882977 0.9807  -0.0737287723214
 C3 0.542187 0.905433 0.06881  -0.0737287723214
 C4 0.59837 0.753428 0.82233  0.19486515625
 C1 0.576661 0.828046 0.50061  0.71593265625
 C2 0.622637 0.786225 0.55701  -0.10654984375
 C3 0.597115 0.82451 0.64792  -0.0737287723214
 C5 0.638157 0.782477 0.70036  0.21235515625
 C3 0.710222 0.707983 0.66198  -0.0737287723214
 C2 0.737756 0.671743 0.5716  -0.10654984375
 C3 0.692155 0.708914 0.51823  -0.0737287723214
 C6 0.817932 0.595831 0.53564  0.79278015625
 C1 0.996878 0.66174 0.81091  0.71593265625
 C2 0.973233 0.732015 0.90588  -0.10654984375
 C3 0.96442 0.694072 0.96968  -0.0737287723214
 C3 0.940959 0.759913 0.05805  -0.0737287723214
 C2 0.925639 0.86443 0.08405  -0.10654984375
 C3 0.934016 0.901965 0.01949  -0.0737287723214
 C3 0.95805 0.836425 0.93136  -0.0737287723214
 C4 0.901287 0.930414 0.17764  0.19486515625
 C1 0.92006 0.328192 0.4991  0.71593265625
 C2 0.87526 0.229061 0.44288  -0.10654984375
 C3 0.900568 0.176569 0.35190  -0.0737287723214
 C5 0.860718 0.081217 0.29970  0.21235515625
 C3 0.78988 0.044043 0.33838  -0.0737287723214
 C2 0.762647 0.097872 0.42878  -0.10654984375
 C3 0.807185 0.189395 0.48198  -0.0737287723214
 C6 0.683653 0.056992 0.46519  0.79278015625
 C1 0.496672 0.149098 0.81110  0.71593265625
 C2 0.473073 0.173666 0.90602  -0.10654984375
 C3 0.464351 0.275417 0.97003  -0.0737287723214
 C3 0.441059 0.297816 0.05837  -0.0737287723214
 C2 0.425889 0.219126 0.0841  -0.10654984375
 C3 0.434122 0.117028 0.0193  -0.0737287723214
 C3 0.457951 0.094571 0.93126  -0.0737287723214
 C4 0.401778 0.246576 0.17774  0.19486515625
 C1 0.423391 0.17194 0.4994  0.71593265625
 C2 0.377437 0.213767 0.44304  -0.10654984375
 C3 0.402974 0.175478 0.35214  -0.0737287723214
 C5 0.361959 0.21752 0.29969  0.21235515625
 C3 0.289903 0.292025 0.3380  -0.0737287723214
 C2 0.262357 0.328271 0.42838  -0.10654984375
 C3 0.30793 0.29109 0.48182  -0.0737287723214
 C6 0.182203 0.404207 0.46439  0.79278015625
 C1 0.003152 0.338267 0.18913  0.71593265625
 C2 0.026772 0.267988 0.09416  -0.10654984375
 C3 0.035572 0.305928 0.03036  -0.0737287723214
 C3 0.059026 0.240085 0.94199  -0.0737287723214
 C2 0.074354 0.13557 0.91599  -0.10654984375
 C3 0.065984 0.098037 0.98055  -0.0737287723214
 C3 0.041956 0.163579 0.06868  -0.0737287723214
 C4 0.098712 0.069587 0.82240  0.19486515625
 C1 0.079986 0.67183 0.5008  0.71593265625
 C2 0.124775 0.770959 0.55716  -0.10654984375
 C3 0.099462 0.823439 0.64814  -0.0737287723214
 C5 0.139306 0.918791 0.70034  0.21235515625
 C3 0.210147 0.955974 0.66168  -0.0737287723214
 C2 0.237384 0.902152 0.57127  -0.10654984375
 C3 0.19285 0.810632 0.51807  -0.0737287723214
 C6 0.316384 0.943028 0.53487  0.79278015625
 N1 0.608564 0.819016 0.7904  -0.38442484375
 N1 0.890257 0.027853 0.20958  -0.38442484375
 N1 0.391561 0.180984 0.20961  -0.38442484375
 N1 0.109756 0.97215 0.79046  -0.38442484375
 O1 0.492301 0.778704 0.21279  -0.68977984375
 O1 0.496441 0.944459 0.24691  -0.68977984375
 O1 0.575828 0.776217 0.41639  -0.68977984375
 O2 0.537181 0.917783 0.53872  -0.82210484375
 O1 0.856265 0.568162 0.59019  -0.68977984375
 O1 0.845135 0.563354 0.45363  -0.68977984375
 O1 0.0 0.5656 0.78690  -0.68977984375
 O1 0.003862 0.697425 0.75311  -0.68977984375
 O1 0.920465 0.361126 0.58345  -0.68977984375
 O2 0.959065 0.379854 0.4609  -0.82210484375
 O1 0.645003 0.974854 0.41060  -0.68977984375
 O1 0.657687 0.105791 0.54761  -0.68977984375
 O1 0.507755 0.221293 0.78726  -0.68977984375
 O1 0.503621 0.055538 0.75315  -0.68977984375
 O1 0.424218 0.223766 0.58367  -0.68977984375
 O2 0.462849 0.082192 0.46134  -0.82210484375
 O1 0.143935 0.431916 0.40983  -0.68977984375
 O1 0.154946 0.43665 0.54638  -0.68977984375
 O1 0.992268 0.43441 0.21315  -0.68977984375
 O1 0.99618 0.302582 0.24694  -0.68977984375
 O1 0.079565 0.638921 0.41659  -0.68977984375
 O2 0.041016 0.620137 0.53910  -0.82210484375
 O1 0.355036 0.025161 0.58947  -0.68977984375
 O1 0.342359 0.894222 0.45245  -0.68977984375
