#======================================================================

# CRYSTAL DATA

#----------------------------------------------------------------------

data_VESTA_phase_1


_pd_phase_name                         MOF
_cell_length_a                         17.66500
_cell_length_b                         15.53000
_cell_length_c                         19.77000
_cell_angle_alpha                      90.02800
_cell_angle_beta                       89.99600
_cell_angle_gamma                      90.02200
_symmetry_space_group_name_H-M         "P 1"
_symmetry_Int_Tables_number            1

loop_
_symmetry_equiv_pos_as_xyz
   "x, y, z"

loop_
   _atom_site_label
   _atom_site_fract_x
   _atom_site_fract_y
   _atom_site_fract_z
 _atom_site_charge
 Zn1 0.216371 0.03725 0.74161  0.920103389831
 Zn1 0.7163 0.037252 0.74162  0.920103389831
 Zn1 0.033789 0.962703 0.24153  0.920103389831
 Zn1 0.53368 0.962725 0.24162  0.920103389831
 Zn1 0.283845 0.537362 0.75851  0.920103389831
 Zn1 0.783828 0.537363 0.75851  0.920103389831
 Zn1 0.466253 0.462722 0.25850  0.920103389831
 Zn1 0.966201 0.462737 0.25851  0.920103389831
 H1 0.025291 0.143199 0.85225  0.109809223164
 H1 0.525288 0.143204 0.85227  0.109809223164
 H1 0.455614 0.240151 0.9345  0.109809223164
 H1 0.955601 0.240139 0.93454  0.109809223164
 H1 0.003431 0.249211 0.05255  0.109809223164
 H1 0.503394 0.249214 0.05257  0.109809223164
 H1 0.260482 0.948573 0.15766  0.109809223164
 H1 0.760385 0.948516 0.15771  0.109809223164
 H1 0.38157 0.976797 0.09311  0.109809223164
 H1 0.881482 0.97672 0.0931  0.109809223164
 H1 0.372892 0.056422 0.9835  0.109809223164
 H1 0.872843 0.056373 0.98359  0.109809223164
 H1 0.255498 0.145737 0.60824  0.109809223164
 H1 0.755443 0.145704 0.60825  0.109809223164
 H1 0.340321 0.299333 0.61611  0.109809223164
 H1 0.840292 0.299291 0.61610  0.109809223164
 H1 0.345653 0.236285 0.85595  0.109809223164
 H1 0.845637 0.236278 0.85594  0.109809223164
 H1 0.288909 0.141734 0.85191  0.109809223164
 H1 0.788896 0.141722 0.85191  0.109809223164
 H1 0.38778 0.135525 0.83635  0.109809223164
 H1 0.887768 0.135519 0.83634  0.109809223164
 H1 0.391193 0.382704 0.71057  0.109809223164
 H1 0.891166 0.382678 0.71054  0.109809223164
 H1 0.372979 0.349977 0.79454  0.109809223164
 H1 0.872947 0.349961 0.7945  0.109809223164
 H1 0.484213 0.24957 0.79097  0.109809223164
 H1 0.984195 0.249572 0.79097  0.109809223164
 H1 0.007934 0.358819 0.78166  0.109809223164
 H1 0.507944 0.358815 0.78167  0.109809223164
 H1 0.491834 0.231461 0.6627  0.109809223164
 H1 0.991831 0.23145 0.66275  0.109809223164
 H1 0.020883 0.339605 0.65637  0.109809223164
 H1 0.520868 0.339613 0.6563  0.109809223164
 H1 0.130238 0.237557 0.65216  0.109809223164
 H1 0.630215 0.237556 0.65215  0.109809223164
 H1 0.104361 0.192748 0.73062  0.109809223164
 H1 0.604344 0.192743 0.73061  0.109809223164
 H1 0.155175 0.252967 0.83447  0.109809223164
 H1 0.655168 0.252959 0.83446  0.109809223164
 H1 0.242036 0.398664 0.86498  0.109809223164
 H1 0.742025 0.398658 0.86498  0.109809223164
 H1 0.223259 0.453475 0.62433  0.109809223164
 H1 0.723242 0.453476 0.62433  0.109809223164
 H1 0.164503 0.364141 0.60555  0.109809223164
 H1 0.664481 0.364144 0.60554  0.109809223164
 H1 0.122984 0.461112 0.6350  0.109809223164
 H1 0.622969 0.461115 0.6350  0.109809223164
 H1 0.225511 0.856807 0.35200  0.109809223164
 H1 0.724846 0.857054 0.35216  0.109809223164
 H1 0.294553 0.759581 0.43438  0.109809223164
 H1 0.794394 0.759917 0.43432  0.109809223164
 H1 0.24619 0.750574 0.55221  0.109809223164
 H1 0.746387 0.750559 0.55223  0.109809223164
 H1 0.489564 0.051253 0.65784  0.109809223164
 H1 0.989827 0.050894 0.6577  0.109809223164
 H1 0.368475 0.023246 0.59322  0.109809223164
 H1 0.86876 0.023097 0.59304  0.109809223164
 H1 0.377159 0.943953 0.48342  0.109809223164
 H1 0.877545 0.944696 0.48285  0.109809223164
 H1 0.494614 0.853981 0.10821  0.109809223164
 H1 0.994572 0.853961 0.10816  0.109809223164
 H1 0.40985 0.700355 0.11618  0.109809223164
 H1 0.90984 0.700316 0.11618  0.109809223164
 H1 0.404343 0.764009 0.35598  0.109809223164
 H1 0.904306 0.764084 0.35594  0.109809223164
 H1 0.461207 0.85845 0.35187  0.109809223164
 H1 0.961119 0.858566 0.35183  0.109809223164
 H1 0.362356 0.864796 0.33630  0.109809223164
 H1 0.862247 0.864821 0.33624  0.109809223164
 H1 0.359019 0.61717 0.21069  0.109809223164
 H1 0.858982 0.617198 0.21071  0.109809223164
 H1 0.377171 0.650154 0.29465  0.109809223164
 H1 0.877161 0.650204 0.29465  0.109809223164
 H1 0.265866 0.750388 0.29  0.109809223164
 H1 0.765851 0.750447 0.29101  0.109809223164
 H1 0.242195 0.64112 0.28170  0.109809223164
 H1 0.742176 0.641174 0.28172  0.109809223164
 H1 0.258373 0.768259 0.16275  0.109809223164
 H1 0.758357 0.768289 0.16276  0.109809223164
 H1 0.229309 0.660109 0.15641  0.109809223164
 H1 0.729298 0.660136 0.15643  0.109809223164
 H1 0.119987 0.762176 0.15210  0.109809223164
 H1 0.619969 0.762196 0.15210  0.109809223164
 H1 0.145842 0.807188 0.23054  0.109809223164
 H1 0.645815 0.807214 0.23054  0.109809223164
 H1 0.0949 0.747305 0.33441  0.109809223164
 H1 0.594913 0.747295 0.3344  0.109809223164
 H1 0.00809 0.601627 0.36505  0.109809223164
 H1 0.508114 0.601609 0.36506  0.109809223164
 H1 0.027204 0.545753 0.12457  0.109809223164
 H1 0.527197 0.545771 0.12457  0.109809223164
 H1 0.085433 0.635407 0.10555  0.109809223164
 H1 0.58543 0.635421 0.10555  0.109809223164
 H1 0.127525 0.538885 0.13522  0.109809223164
 H1 0.627518 0.538894 0.13522  0.109809223164
 H1 0.475659 0.643142 0.64802  0.109809223164
 H1 0.975644 0.643197 0.64800  0.109809223164
 H1 0.044774 0.740358 0.5655  0.109809223164
 H1 0.544805 0.740256 0.56560  0.109809223164
 H1 0.496413 0.74928 0.44779  0.109809223164
 H1 0.996345 0.749363 0.44777  0.109809223164
 H1 0.23973 0.449085 0.34238  0.109809223164
 H1 0.739683 0.449097 0.34240  0.109809223164
 H1 0.118705 0.476831 0.40717  0.109809223164
 H1 0.618665 0.476843 0.40720  0.109809223164
 H1 0.12761 0.555156 0.5173  0.109809223164
 H1 0.627586 0.555186 0.51740  0.109809223164
 H1 0.244797 0.645991 0.8919  0.109809223164
 H1 0.744785 0.645997 0.89195  0.109809223164
 H1 0.160255 0.79972 0.88409  0.109809223164
 H1 0.660239 0.799723 0.88409  0.109809223164
 H1 0.154359 0.736145 0.64429  0.109809223164
 H1 0.654361 0.73613 0.64428  0.109809223164
 H1 0.211296 0.641795 0.64831  0.109809223164
 H1 0.711277 0.641766 0.64831  0.109809223164
 H1 0.112456 0.635267 0.66394  0.109809223164
 H1 0.612436 0.635267 0.66394  0.109809223164
 H1 0.109303 0.882878 0.78984  0.109809223164
 H1 0.609298 0.88288 0.78982  0.109809223164
 H1 0.127651 0.850302 0.7058  0.109809223164
 H1 0.627636 0.850268 0.70581  0.109809223164
 H1 0.016314 0.750032 0.70895  0.109809223164
 H1 0.516294 0.75003 0.70895  0.109809223164
 H1 0.492643 0.859246 0.71851  0.109809223164
 H1 0.992631 0.859246 0.71851  0.109809223164
 H1 0.008435 0.731552 0.83713  0.109809223164
 H1 0.508441 0.731555 0.83713  0.109809223164
 H1 0.47939 0.839668 0.84372  0.109809223164
 H1 0.97937 0.839668 0.84372  0.109809223164
 H1 0.370039 0.737527 0.84753  0.109809223164
 H1 0.87001 0.737539 0.84752  0.109809223164
 H1 0.396061 0.692926 0.76901  0.109809223164
 H1 0.896033 0.692945 0.76899  0.109809223164
 H1 0.344915 0.752888 0.66539  0.109809223164
 H1 0.844887 0.752916 0.6653  0.109809223164
 H1 0.25809 0.898558 0.63501  0.109809223164
 H1 0.758038 0.898577 0.63501  0.109809223164
 H1 0.277563 0.95347 0.87575  0.109809223164
 H1 0.777545 0.95348 0.87576  0.109809223164
 H1 0.336977 0.86468 0.89422  0.109809223164
 H1 0.836959 0.864686 0.89422  0.109809223164
 H1 0.377737 0.961907 0.86441  0.109809223164
 H1 0.87772 0.961916 0.86441  0.109809223164
 H1 0.274747 0.356443 0.1479  0.109809223164
 H1 0.774715 0.356422 0.1479  0.109809223164
 H1 0.205321 0.259836 0.06529  0.109809223164
 H1 0.705294 0.259816 0.0652  0.109809223164
 H1 0.253056 0.251898 0.94720  0.109809223164
 H1 0.753036 0.251884 0.947  0.109809223164
 H1 0.010732 0.551269 0.84251  0.109809223164
 H1 0.510735 0.551276 0.84251  0.109809223164
 H1 0.131579 0.523129 0.90740  0.109809223164
 H1 0.631583 0.523137 0.90739  0.109809223164
 H1 0.122343 0.44461 0.01746  0.109809223164
 H1 0.62235 0.444616 0.01745  0.109809223164
 H1 0.00543 0.354373 0.39194  0.109809223164
 H1 0.505286 0.354412 0.39197  0.109809223164
 H1 0.090112 0.200735 0.38403  0.109809223164
 H1 0.589827 0.200679 0.3842  0.109809223164
 H1 0.095735 0.263942 0.14422  0.109809223164
 H1 0.595798 0.263758 0.14436  0.109809223164
 H1 0.03884 0.358338 0.14825  0.109809223164
 H1 0.538934 0.358178 0.1483  0.109809223164
 H1 0.137691 0.364805 0.16389  0.109809223164
 H1 0.637777 0.364623 0.16401  0.109809223164
 H1 0.140839 0.117348 0.28956  0.109809223164
 H1 0.640796 0.117282 0.28994  0.109809223164
 H1 0.122608 0.150124 0.20560  0.109809223164
 H1 0.622543 0.149805 0.20594  0.109809223164
 H1 0.233996 0.250311 0.2090  0.109809223164
 H1 0.7339 0.250089 0.20921  0.109809223164
 H1 0.257586 0.141061 0.21843  0.109809223164
 H1 0.757493 0.140845 0.21861  0.109809223164
 H1 0.24166 0.268579 0.33725  0.109809223164
 H1 0.741742 0.268392 0.33743  0.109809223164
 H1 0.270627 0.160429 0.34368  0.109809223164
 H1 0.770774 0.16026 0.34383  0.109809223164
 H1 0.380036 0.262518 0.34778  0.109809223164
 H1 0.880116 0.262404 0.34783  0.109809223164
 H1 0.354156 0.307202 0.26928  0.109809223164
 H1 0.85414 0.307091 0.2693  0.109809223164
 H1 0.40518 0.247066 0.1655  0.109809223164
 H1 0.904925 0.246913 0.16555  0.109809223164
 H1 0.491948 0.101317 0.13513  0.109809223164
 H1 0.991805 0.101275 0.13502  0.109809223164
 H1 0.472707 0.046868 0.37591  0.109809223164
 H1 0.97323 0.046695 0.37573  0.109809223164
 H1 0.413269 0.135674 0.3943  0.109809223164
 H1 0.914175 0.135753 0.39447  0.109809223164
 H1 0.372515 0.038352 0.36468  0.109809223164
 H1 0.872998 0.038566 0.36496  0.109809223164
 C1 0.144241 0.042125 0.87673  0.684143389831
 C1 0.644232 0.042125 0.8767  0.684143389831
 C2 0.103791 0.098668 0.92744  -0.192101610169
 C2 0.603767 0.098662 0.92747  -0.192101610169
 C3 0.042022 0.147486 0.90525  -0.0922541101695
 C3 0.542007 0.147486 0.90526  -0.0922541101695
 C3 0.003725 0.200951 0.95015  -0.0922541101695
 C3 0.503707 0.200956 0.95016  -0.0922541101695
 C4 0.029984 0.205248 0.01659  0.0211733898305
 C4 0.529949 0.205247 0.01661  0.0211733898305
 C5 0.124524 0.105521 0.99603  0.235903389831
 C5 0.62448 0.105506 0.99606  0.235903389831
 C5 0.192519 0.060653 0.02357  0.235903389831
 C5 0.692463 0.060629 0.02361  0.235903389831
 C2 0.190938 0.013284 0.08450  -0.192101610169
 C2 0.690856 0.013253 0.08454  -0.192101610169
 C3 0.260215 0.983636 0.10992  -0.0922541101695
 C3 0.760125 0.983592 0.10997  -0.0922541101695
 C3 0.326939 0.998903 0.07435  -0.0922541101695
 C3 0.826859 0.998847 0.07441  -0.0922541101695
 C4 0.322039 0.043598 0.01336  0.0211733898305
 C4 0.821982 0.043553 0.01342  0.0211733898305
 C1 0.118373 0.990647 0.12095  0.684143389831
 C1 0.618264 0.990624 0.12096  0.684143389831
 C4 0.284295 0.176513 0.65027  0.0211733898305
 C4 0.784263 0.176475 0.65026  0.0211733898305
 C4 0.326518 0.25039 0.65320  0.0211733898305
 C4 0.826493 0.250349 0.65319  0.0211733898305
 C6 0.322542 0.19046 0.75579  0.337148389831
 C6 0.822519 0.190437 0.75579  0.337148389831
 C7 0.336953 0.175402 0.82876  -0.442271610169
 C7 0.836937 0.175391 0.82875  -0.442271610169
 C8 0.397247 0.329018 0.74626  -0.0252766101695
 C8 0.897222 0.328997 0.74624  -0.0252766101695
 C9 0.480281 0.304406 0.75587  -0.151146610169
 C9 0.980259 0.304401 0.75586  -0.151146610169
 C9 0.021732 0.283154 0.69009  -0.151146610169
 C9 0.521718 0.28316 0.69009  -0.151146610169
 C8 0.103126 0.252326 0.7007  -0.0252766101695
 C8 0.60311 0.252325 0.70077  -0.0252766101695
 C4 0.171414 0.308307 0.80443  0.0211733898305
 C4 0.671406 0.3083 0.80442  0.0211733898305
 C4 0.214562 0.379219 0.81838  0.0211733898305
 C4 0.714552 0.379214 0.8183  0.0211733898305
 C6 0.181703 0.388348 0.71101  0.337148389831
 C6 0.681691 0.388344 0.71100  0.337148389831
 C7 0.172402 0.418477 0.64035  -0.442271610169
 C7 0.672386 0.418478 0.64035  -0.442271610169
 C1 0.106737 0.957959 0.37592  0.684143389831
 C1 0.605826 0.957954 0.37670  0.684143389831
 C2 0.146792 0.901584 0.42695  -0.192101610169
 C2 0.646268 0.901442 0.42738  -0.192101610169
 C3 0.208541 0.852568 0.40493  -0.0922541101695
 C3 0.708049 0.85265 0.40513  -0.0922541101695
 C3 0.246503 0.79894 0.4498  -0.0922541101695
 C3 0.746284 0.799095 0.44996  -0.0922541101695
 C4 0.219953 0.794705 0.51622  0.0211733898305
 C4 0.719925 0.794656 0.51635  0.0211733898305
 C5 0.125809 0.894852 0.49548  0.235903389831
 C5 0.625467 0.894495 0.4959  0.235903389831
 C5 0.057901 0.93993 0.52301  0.235903389831
 C5 0.557508 0.93943 0.52351  0.235903389831
 C2 0.059455 0.986836 0.58422  -0.192101610169
 C2 0.559099 0.986644 0.58455  -0.192101610169
 C3 0.489833 0.016316 0.6100  -0.0922541101695
 C3 0.99013 0.016252 0.60979  -0.0922541101695
 C3 0.423103 0.001148 0.57442  -0.0922541101695
 C3 0.923413 0.001243 0.57412  -0.0922541101695
 C4 0.427999 0.956624 0.51331  0.0211733898305
 C4 0.928368 0.957203 0.51281  0.0211733898305
 C1 0.13202 0.009315 0.62078  0.684143389831
 C1 0.6317 0.009261 0.62097  0.684143389831
 C4 0.465805 0.8233 0.15025  0.0211733898305
 C4 0.96576 0.823305 0.15021  0.0211733898305
 C4 0.423621 0.7494 0.15323  0.0211733898305
 C4 0.923595 0.749391 0.15321  0.0211733898305
 C6 0.427543 0.809569 0.25579  0.337148389831
 C6 0.927493 0.809632 0.25574  0.337148389831
 C7 0.413125 0.824805 0.32874  -0.442271610169
 C7 0.913056 0.824886 0.32869  -0.442271610169
 C8 0.352906 0.670941 0.24634  -0.0252766101695
 C8 0.852884 0.67098 0.2463  -0.0252766101695
 C9 0.269851 0.695506 0.25590  -0.151146610169
 C9 0.769832 0.695556 0.25592  -0.151146610169
 C9 0.228459 0.716628 0.19010  -0.151146610169
 C9 0.728442 0.716663 0.19012  -0.151146610169
 C8 0.147073 0.747531 0.20074  -0.0252766101695
 C8 0.647054 0.747557 0.20074  -0.0252766101695
 C4 0.078701 0.69187 0.30442  0.0211733898305
 C4 0.5787 0.691873 0.30443  0.0211733898305
 C4 0.03554 0.621008 0.3184  0.0211733898305
 C4 0.535556 0.620999 0.31844  0.0211733898305
 C6 0.068462 0.61157 0.21108  0.337148389831
 C6 0.568464 0.611578 0.2110  0.337148389831
 C7 0.077871 0.581186 0.14048  -0.442271610169
 C7 0.577867 0.581198 0.1404  -0.442271610169
 C1 0.356771 0.542038 0.62413  0.684143389831
 C1 0.856768 0.542058 0.62412  0.684143389831
 C2 0.39687 0.598385 0.57309  -0.192101610169
 C2 0.896851 0.598428 0.57308  -0.192101610169
 C3 0.458673 0.647374 0.59509  -0.0922541101695
 C3 0.958647 0.647434 0.59508  -0.0922541101695
 C3 0.496707 0.700927 0.55011  -0.0922541101695
 C3 0.996655 0.701017 0.55010  -0.0922541101695
 C4 0.470138 0.705168 0.48378  0.0211733898305
 C4 0.970075 0.705257 0.48377  0.0211733898305
 C5 0.375867 0.605115 0.50458  0.235903389831
 C5 0.875836 0.605161 0.50457  0.235903389831
 C5 0.307917 0.560016 0.47709  0.235903389831
 C5 0.807885 0.560051 0.47709  0.235903389831
 C2 0.309396 0.513154 0.41586  -0.192101610169
 C2 0.809357 0.513171 0.41587  -0.192101610169
 C3 0.24007 0.483701 0.39035  -0.0922541101695
 C3 0.740027 0.483721 0.39037  -0.0922541101695
 C3 0.173381 0.498699 0.42605  -0.0922541101695
 C3 0.673343 0.498716 0.42607  -0.0922541101695
 C4 0.178403 0.54271 0.48737  0.0211733898305
 C4 0.678374 0.542735 0.48739  0.0211733898305
 C1 0.381913 0.490696 0.37926  0.684143389831
 C1 0.881864 0.490704 0.37925  0.684143389831
 C4 0.215958 0.676722 0.84996  0.0211733898305
 C4 0.715948 0.676725 0.84996  0.0211733898305
 C4 0.173888 0.750663 0.84702  0.0211733898305
 C4 0.673876 0.750664 0.84702  0.0211733898305
 C6 0.177667 0.690529 0.7444  0.337148389831
 C6 0.677655 0.690522 0.74444  0.337148389831
 C7 0.163202 0.675339 0.67149  -0.442271610169
 C7 0.663191 0.675326 0.67149  -0.442271610169
 C8 0.10325 0.829268 0.75403  -0.0252766101695
 C8 0.603239 0.829258 0.75402  -0.0252766101695
 C9 0.020208 0.804747 0.74421  -0.151146610169
 C9 0.520195 0.804743 0.74421  -0.151146610169
 C9 0.47862 0.783303 0.8098  -0.151146610169
 C9 0.978598 0.783306 0.80986  -0.151146610169
 C8 0.39725 0.752431 0.79899  -0.0252766101695
 C8 0.897226 0.752447 0.79898  -0.0252766101695
 C4 0.32879 0.808277 0.69545  0.0211733898305
 C4 0.828769 0.808308 0.69544  0.0211733898305
 C4 0.285632 0.87914 0.68156  0.0211733898305
 C4 0.785605 0.87917 0.68156  0.0211733898305
 C6 0.318846 0.888516 0.7888  0.337148389831
 C6 0.818822 0.888536 0.78885  0.337148389831
 C7 0.328512 0.91887 0.85944  -0.442271610169
 C7 0.828493 0.918881 0.85943  -0.442271610169
 C1 0.393326 0.457979 0.12414  0.684143389831
 C1 0.893283 0.457978 0.12414  0.684143389831
 C2 0.353222 0.401738 0.07299  -0.192101610169
 C2 0.853183 0.401735 0.07  -0.192101610169
 C3 0.29152 0.352582 0.09495  -0.0922541101695
 C3 0.79149 0.352563 0.09495  -0.0922541101695
 C3 0.253318 0.299321 0.04983  -0.0922541101695
 C3 0.753291 0.299304 0.0498  -0.0922541101695
 C4 0.27955 0.29566 0.98336  0.0211733898305
 C4 0.779526 0.295647 0.98335  0.0211733898305
 C5 0.374016 0.395438 0.  0.235903389831
 C5 0.873985 0.395434 0.  0.235903389831
 C5 0.442082 0.4404 0.97  0.235903389831
 C5 0.942051 0.440401 0.97700  0.235903389831
 C2 0.440807 0.487382 0.91585  -0.192101610169
 C2 0.940779 0.487376 0.9158  -0.192101610169
 C3 0.010234 0.516598 0.89043  -0.0922541101695
 C3 0.510238 0.5166 0.89043  -0.0922541101695
 C3 0.076835 0.501364 0.92618  -0.0922541101695
 C3 0.576839 0.501371 0.92617  -0.0922541101695
 C4 0.071625 0.457262 0.98741  0.0211733898305
 C4 0.571631 0.457268 0.98740  0.0211733898305
 C1 0.368426 0.510277 0.87925  0.684143389831
 C1 0.868398 0.510272 0.87925  0.684143389831
 C4 0.03421 0.323598 0.34991  0.0211733898305
 C4 0.534109 0.323593 0.34999  0.0211733898305
 C4 0.076344 0.24969 0.34696  0.0211733898305
 C4 0.576203 0.249654 0.34711  0.0211733898305
 C6 0.072448 0.309672 0.24438  0.337148389831
 C6 0.572476 0.309566 0.24450  0.337148389831
 C7 0.086913 0.324786 0.17143  -0.442271610169
 C7 0.58699 0.324618 0.17155  -0.442271610169
 C8 0.14695 0.171026 0.25387  -0.0252766101695
 C8 0.646901 0.170866 0.25416  -0.0252766101695
 C9 0.23001 0.195538 0.24419  -0.151146610169
 C9 0.729967 0.195337 0.24439  -0.151146610169
 C9 0.271494 0.216847 0.30993  -0.151146610169
 C9 0.771558 0.216676 0.31007  -0.151146610169
 C8 0.352894 0.24767 0.29919  -0.0252766101695
 C8 0.85294 0.247547 0.29926  -0.0252766101695
 C4 0.421307 0.191707 0.19561  0.0211733898305
 C4 0.921185 0.191602 0.19559  0.0211733898305
 C4 0.46443 0.120803 0.18170  0.0211733898305
 C4 0.964364 0.120757 0.18163  0.0211733898305
 C6 0.4313 0.111587 0.28902  0.337148389831
 C6 0.931545 0.111597 0.28902  0.337148389831
 C7 0.42172 0.081394 0.35963  -0.442271610169
 C7 0.92228 0.081449 0.35967  -0.442271610169
 N1 0.281756 0.13982 0.71431  -0.468021610169
 N1 0.781725 0.139794 0.71431  -0.468021610169
 N2 0.350404 0.258453 0.71979  0.00236838983051
 N2 0.850386 0.258421 0.71978  0.00236838983051
 N1 0.22101 0.428497 0.7600  -0.468021610169
 N1 0.720999 0.428493 0.76000  -0.468021610169
 N2 0.150945 0.314627 0.73684  0.00236838983051
 N2 0.650935 0.314621 0.73683  0.00236838983051
 N3 0.256765 0.074412 0.98826  -0.408461610169
 N3 0.756718 0.074385 0.98832  -0.408461610169
 N3 0.088968 0.159189 0.0395  -0.408461610169
 N3 0.588919 0.159173 0.0395  -0.408461610169
 N1 0.468315 0.860139 0.21427  -0.468021610169
 N1 0.968254 0.860191 0.21421  -0.468021610169
 N2 0.399716 0.741477 0.21983  0.00236838983051
 N2 0.899687 0.741506 0.21981  0.00236838983051
 N1 0.02911 0.57157 0.26009  -0.468021610169
 N1 0.52913 0.571563 0.26010  -0.468021610169
 N2 0.099219 0.685356 0.23684  0.00236838983051
 N2 0.599208 0.685372 0.23685  0.00236838983051
 N3 0.493268 0.925817 0.48817  -0.408461610169
 N3 0.993668 0.926611 0.48756  -0.408461610169
 N3 0.161058 0.841035 0.53901  -0.408461610169
 N3 0.660946 0.840717 0.53932  -0.408461610169
 N1 0.218385 0.639895 0.78593  -0.468021610169
 N1 0.718375 0.639893 0.78593  -0.468021610169
 N2 0.149953 0.758638 0.78044  0.00236838983051
 N2 0.649941 0.758632 0.78044  0.00236838983051
 N1 0.279375 0.928539 0.73994  -0.468021610169
 N1 0.779346 0.928561 0.73994  -0.468021610169
 N2 0.349488 0.814748 0.76299  0.00236838983051
 N2 0.849469 0.814774 0.76298  0.00236838983051
 N3 0.243733 0.573313 0.51258  -0.408461610169
 N3 0.743707 0.573346 0.51259  -0.408461610169
 N3 0.411166 0.6589 0.46103  -0.408461610169
 N3 0.911113 0.658966 0.46102  -0.408461610169
 N1 0.031718 0.360323 0.28588  -0.468021610169
 N1 0.531722 0.360275 0.28593  -0.468021610169
 N2 0.100227 0.241641 0.28036  0.00236838983051
 N2 0.600181 0.241544 0.2805  0.00236838983051
 N1 0.470714 0.071476 0.24007  -0.468021610169
 N1 0.970862 0.071499 0.24001  -0.468021610169
 N2 0.40067 0.185335 0.26316  0.00236838983051
 N2 0.900727 0.185261 0.26319  0.00236838983051
 N3 0.006188 0.426817 0.01252  -0.408461610169
 N3 0.506197 0.426819 0.01251  -0.408461610169
 N3 0.338449 0.342074 0.96065  -0.408461610169
 N3 0.838425 0.342064 0.96065  -0.408461610169
 O1 0.149413 0.963107 0.8855  -0.594691610169
 O1 0.649409 0.963106 0.88558  -0.594691610169
 O2 0.168795 0.085437 0.82474  -0.634366610169
 O2 0.668797 0.085446 0.82478  -0.634366610169
 O1 0.058289 0.98054 0.08897  -0.594691610169
 O1 0.558215 0.980467 0.08894  -0.594691610169
 O2 0.126267 0.981494 0.18614  -0.634366610169
 O2 0.626099 0.981538 0.18616  -0.634366610169
 O1 0.102968 0.037261 0.38371  -0.594691610169
 O1 0.600733 0.036996 0.385  -0.594691610169
 O2 0.081041 0.914158 0.32462  -0.634366610169
 O2 0.581175 0.914572 0.32475  -0.634366610169
 O1 0.192142 0.019437 0.5888  -0.594691610169
 O1 0.691754 0.019373 0.58895  -0.594691610169
 O2 0.124079 0.018405 0.68598  -0.634366610169
 O2 0.623868 0.018446 0.68617  -0.634366610169
 O1 0.352991 0.462745 0.6163  -0.594691610169
 O1 0.852994 0.462765 0.61637  -0.594691610169
 O2 0.331091 0.585866 0.67542  -0.634366610169
 O2 0.83109 0.585874 0.67542  -0.634366610169
 O1 0.442065 0.480606 0.41113  -0.594691610169
 O1 0.94202 0.480616 0.41112  -0.594691610169
 O2 0.373902 0.481544 0.31407  -0.634366610169
 O2 0.873838 0.481545 0.31407  -0.634366610169
 O1 0.397078 0.537273 0.11646  -0.594691610169
 O1 0.897053 0.53727 0.11646  -0.594691610169
 O2 0.418972 0.414137 0.17540  -0.634366610169
 O2 0.918912 0.41414 0.1754  -0.634366610169
 O1 0.308559 0.521775 0.91125  -0.594691610169
 O1 0.80853 0.521768 0.9112  -0.594691610169
 O2 0.376273 0.518309 0.81397  -0.634366610169
 O2 0.876248 0.518306 0.81397  -0.634366610169
