#======================================================================

# CRYSTAL DATA

#----------------------------------------------------------------------

data_VESTA_phase_1


_pd_phase_name                         MOF
_cell_length_a                         14.80900
_cell_length_b                         21.17500
_cell_length_c                         21.17200
_cell_angle_alpha                      83.04900
_cell_angle_beta                       69.62400
_cell_angle_gamma                      69.64200
_symmetry_space_group_name_H-M         "P 1"
_symmetry_Int_Tables_number            1

loop_
_symmetry_equiv_pos_as_xyz
   "x, y, z"

loop_
   _atom_site_label
   _atom_site_fract_x
   _atom_site_fract_y
   _atom_site_fract_z
 _atom_site_charge
 Mo1 0.508406 0.947607 0.00453  0.900621159091
 Mo1 0.960981 0.552387 0.49527  0.900621159091
 Mo1 0.512962 0.995329 0.44761  0.900621159091
 Mo1 0.456353 0.504571 0.05241  0.900621159091
 Mo1 0.491581 0.052392 0.9954  0.900621159091
 Mo1 0.039001 0.447611 0.50473  0.900621159091
 Mo1 0.487035 0.00467 0.55239  0.900621159091
 Mo1 0.543623 0.49544 0.94760  0.900621159091
 H1 0.988739 0.928963 0.73618  0.0966871313131
 H1 0.767033 0.043768 0.07973  0.0966871313131
 H1 0.768441 0.944656 0.0260  0.0966871313131
 H1 0.743548 0.066438 0.  0.0966871313131
 H1 0.035584 0.934435 0.92387  0.0966871313131
 H1 0.938335 0.865376 0.03212  0.0966871313131
 H1 0.173713 0.911135 0.82843  0.0966871313131
 H1 0.117314 0.993306 0.70967  0.0966871313131
 H1 0.119603 0.026906 0.78187  0.0966871313131
 H1 0.865589 0.055321 0.00655  0.0966871313131
 H1 0.975017 0.936386 0.034  0.0966871313131
 H1 0.869532 0.923892 0.09988  0.0966871313131
 H1 0.15836 0.863126 0.70205  0.0966871313131
 H1 0.714153 0.943146 0.8192  0.0966871313131
 H1 0.770212 0.908586 0.70215  0.0966871313131
 H1 0.892348 0.914825 0.6857  0.0966871313131
 H1 0.855397 0.852113 0.74207  0.0966871313131
 H1 0.69145 0.033054 0.73327  0.0966871313131
 H1 0.709251 0.062603 0.80200  0.0966871313131
 H1 0.811311 0.040711 0.72430  0.0966871313131
 H1 0.549506 0.890141 0.20657  0.0966871313131
 H1 0.536699 0.097945 0.18433  0.0966871313131
 H1 0.559195 0.892476 0.32242  0.0966871313131
 H1 0.5489 0.091471 0.30080  0.0966871313131
 H1 0.234721 0.974967 0.72387  0.0966871313131
 H1 0.270883 0.84844 0.7211  0.0966871313131
 H1 0.17777 0.811699 0.77222  0.0966871313131
 H1 0.154654 0.570857 0.76419  0.0966871313131
 H1 0.389827 0.456745 0.42040  0.0966871313131
 H1 0.239102 0.555723 0.47420  0.0966871313131
 H1 0.311292 0.433905 0.49838  0.0966871313131
 H1 0.393961 0.565857 0.57670  0.0966871313131
 H1 0.33592 0.635081 0.46836  0.0966871313131
 H1 0.413554 0.589059 0.67234  0.0966871313131
 H1 0.320607 0.506643 0.79082  0.0966871313131
 H1 0.428483 0.473226 0.71870  0.0966871313131
 H1 0.427032 0.445094 0.49358  0.0966871313131
 H1 0.445671 0.564131 0.46603  0.0966871313131
 H1 0.393068 0.576637 0.40053  0.0966871313131
 H1 0.224305 0.636817 0.79859  0.0966871313131
 H1 0.977422 0.556448 0.68069  0.0966871313131
 H1 0.882055 0.590938 0.79779  0.0966871313131
 H1 0.99384 0.585024 0.81433  0.0966871313131
 H1 0.950475 0.647609 0.7579  0.0966871313131
 H1 0.958672 0.466483 0.76655  0.0966871313131
 H1 0.074646 0.437105 0.69802  0.0966871313131
 H1 0.076909 0.459127 0.77588  0.0966871313131
 H1 0.146975 0.609423 0.29342  0.0966871313131
 H1 0.318124 0.40156 0.31599  0.0966871313131
 H1 0.274657 0.606888 0.17768  0.0966871313131
 H1 0.440158 0.407814 0.19960  0.0966871313131
 H1 0.433693 0.525145 0.77694  0.0966871313131
 H1 0.341136 0.65156 0.7797  0.0966871313131
 H1 0.262528 0.688368 0.72857  0.0966871313131
 H1 0.725586 0.264031 0.42892  0.0966871313131
 H1 0.846418 0.920512 0.54358  0.0966871313131
 H1 0.794456 0.974162 0.44447  0.0966871313131
 H1 0.745262 0.99854 0.56630  0.0966871313131
 H1 0.959586 0.076574 0.43426  0.0966871313131
 H1 0.970374 0.968192 0.36516  0.0966871313131
 H1 0.0 0.17213 0.41091  0.0966871313131
 H1 0.827601 0.290698 0.49324  0.0966871313131
 H1 0.902034 0.218589 0.52674  0.0966871313131
 H1 0.872141 0.99367 0.55516  0.0966871313131
 H1 0.009416 0.965901 0.43617  0.0966871313131
 H1 0.969129 0.900448 0.42368  0.0966871313131
 H1 0.860955 0.298334 0.36304  0.0966871313131
 H1 0.53391 0.180679 0.44330  0.0966871313131
 H1 0.473079 0.297744 0.40879  0.0966871313131
 H1 0.578947 0.314248 0.41482  0.0966871313131
 H1 0.597941 0.257896 0.35217  0.0966871313131
 H1 0.425605 0.266575 0.53327  0.0966871313131
 H1 0.512112 0.19801 0.56272  0.0966871313131
 H1 0.536498 0.275795 0.54073  0.0966871313131
 H1 0.755179 0.793292 0.3904  0.0966871313131
 H1 0.719871 0.815854 0.59828  0.0966871313131
 H1 0.880145 0.677513 0.39292  0.0966871313131
 H1 0.84795 0.699433 0.59196  0.0966871313131
 H1 0.959115 0.276719 0.47479  0.0966871313131
 H1 0.992456 0.279462 0.34831  0.0966871313131
 H1 0.950424 0.228271 0.3115  0.0966871313131
 H1 0.91799 0.236084 0.07070  0.0966871313131
 H1 0.810617 0.579717 0.95635  0.0966871313131
 H1 0.713426 0.525878 0.0553  0.0966871313131
 H1 0.8098 0.501714 0.93350  0.0966871313131
 H1 0.970304 0.423688 0.06555  0.0966871313131
 H1 0.804219 0.531873 0.13473  0.0966871313131
 H1 0.085139 0.328236 0.08888  0.0966871313131
 H1 0.110703 0.209671 0.  0.0966871313131
 H1 0.14641 0.281922 0.97299  0.0966871313131
 H1 0.920706 0.506586 0.94471  0.0966871313131
 H1 0.911662 0.534315 0.06380  0.0966871313131
 H1 0.793765 0.599682 0.07629  0.0966871313131
 H1 0.022118 0.201784 0.13650  0.0966871313131
 H1 0.657632 0.319241 0.05641  0.0966871313131
 H1 0.679009 0.202219 0.09111  0.0966871313131
 H1 0.807318 0.185776 0.0849  0.0966871313131
 H1 0.707926 0.242185 0.14760  0.0966871313131
 H1 0.724389 0.233139 0.96663  0.0966871313131
 H1 0.771806 0.301762 0.93700  0.0966871313131
 H1 0.851863 0.22409 0.95904  0.0966871313131
 H1 0.440136 0.706624 0.10976  0.0966871313131
 H1 0.634279 0.684294 0.90197  0.0966871313131
 H1 0.452195 0.822452 0.10742  0.0966871313131
 H1 0.640112 0.800733 0.90845  0.0966871313131
 H1 0.209791 0.223833 0.02485  0.0966871313131
 H1 0.119928 0.220865 0.15135  0.0966871313131
 H1 0.990222 0.271835 0.18813  0.0966871313131
 H1 0.011241 0.071046 0.26382  0.0966871313131
 H1 0.232947 0.956234 0.92027  0.0966871313131
 H1 0.231543 0.055346 0.97398  0.0966871313131
 H1 0.256431 0.933565 0.998  0.0966871313131
 H1 0.964398 0.065574 0.07614  0.0966871313131
 H1 0.061651 0.134629 0.9678  0.0966871313131
 H1 0.826268 0.088874 0.17158  0.0966871313131
 H1 0.882661 0.0 0.29034  0.0966871313131
 H1 0.880371 0.973107 0.21814  0.0966871313131
 H1 0.134389 0.944685 0.99346  0.0966871313131
 H1 0.024964 0.06362 0.96551  0.0966871313131
 H1 0.130452 0.076112 0.90013  0.0966871313131
 H1 0.84162 0.136891 0.29795  0.0966871313131
 H1 0.285829 0.056858 0.18075  0.0966871313131
 H1 0.229767 0.091419 0.29786  0.0966871313131
 H1 0.10763 0.085184 0.31425  0.0966871313131
 H1 0.144586 0.147893 0.25794  0.0966871313131
 H1 0.308526 0.966951 0.26674  0.0966871313131
 H1 0.290723 0.937401 0.19801  0.0966871313131
 H1 0.188663 0.959297 0.27571  0.0966871313131
 H1 0.450492 0.109856 0.79344  0.0966871313131
 H1 0.463291 0.902053 0.81568  0.0966871313131
 H1 0.440802 0.10752 0.6775  0.0966871313131
 H1 0.451089 0.908526 0.69921  0.0966871313131
 H1 0.765255 0.02505 0.27614  0.0966871313131
 H1 0.729098 0.151577 0.27885  0.0966871313131
 H1 0.822216 0.188314 0.22777  0.0966871313131
 H1 0.845322 0.429157 0.23582  0.0966871313131
 H1 0.610152 0.54326 0.57961  0.0966871313131
 H1 0.760877 0.444283 0.52581  0.0966871313131
 H1 0.688688 0.5661 0.5016  0.0966871313131
 H1 0.606016 0.434152 0.42330  0.0966871313131
 H1 0.66406 0.364924 0.53164  0.0966871313131
 H1 0.586423 0.410953 0.32766  0.0966871313131
 H1 0.679373 0.493368 0.20918  0.0966871313131
 H1 0.571496 0.526786 0.28130  0.0966871313131
 H1 0.572947 0.554911 0.50642  0.0966871313131
 H1 0.554309 0.435874 0.53398  0.0966871313131
 H1 0.606911 0.423368 0.59947  0.0966871313131
 H1 0.775674 0.363194 0.20141  0.0966871313131
 H1 0.022558 0.44356 0.31931  0.0966871313131
 H1 0.117922 0.409077 0.20222  0.0966871313131
 H1 0.006136 0.414994 0.18567  0.0966871313131
 H1 0.049504 0.352404 0.24204  0.0966871313131
 H1 0.041303 0.533529 0.23346  0.0966871313131
 H1 0.92533 0.562904 0.30199  0.0966871313131
 H1 0.923065 0.540887 0.22413  0.0966871313131
 H1 0.853004 0.390581 0.70659  0.0966871313131
 H1 0.68186 0.598443 0.68401  0.0966871313131
 H1 0.725318 0.39312 0.82233  0.0966871313131
 H1 0.559821 0.592193 0.8004  0.0966871313131
 H1 0.566286 0.474867 0.22306  0.0966871313131
 H1 0.658842 0.348453 0.22024  0.0966871313131
 H1 0.737448 0.311644 0.27144  0.0966871313131
 H1 0.274399 0.735974 0.57109  0.0966871313131
 H1 0.153582 0.079492 0.45643  0.0966871313131
 H1 0.205538 0.025842 0.55554  0.0966871313131
 H1 0.254737 0.0 0.43371  0.0966871313131
 H1 0.040406 0.923433 0.56574  0.0966871313131
 H1 0.029617 0.031815 0.63484  0.0966871313131
 H1 0.997525 0.82788 0.58909  0.0966871313131
 H1 0.172383 0.709309 0.50676  0.0966871313131
 H1 0.097953 0.781419 0.47326  0.0966871313131
 H1 0.127858 0.006334 0.44485  0.0966871313131
 H1 0.990578 0.034106 0.56383  0.0966871313131
 H1 0.030867 0.099558 0.57633  0.0966871313131
 H1 0.139026 0.701674 0.63697  0.0966871313131
 H1 0.466078 0.819322 0.55671  0.0966871313131
 H1 0.526906 0.702256 0.5912  0.0966871313131
 H1 0.421038 0.685754 0.58518  0.0966871313131
 H1 0.402043 0.742103 0.64784  0.0966871313131
 H1 0.574385 0.733428 0.46673  0.0966871313131
 H1 0.487878 0.801995 0.43729  0.0966871313131
 H1 0.463493 0.72421 0.45927  0.0966871313131
 H1 0.244827 0.206713 0.60957  0.0966871313131
 H1 0.280122 0.184141 0.40173  0.0966871313131
 H1 0.119863 0.322492 0.60708  0.0966871313131
 H1 0.152046 0.300563 0.40804  0.0966871313131
 H1 0.040869 0.723291 0.52522  0.0966871313131
 H1 0.007525 0.720548 0.65169  0.0966871313131
 H1 0.049559 0.771737 0.68848  0.0966871313131
 H1 0.081989 0.763927 0.92930  0.0966871313131
 H1 0.189362 0.420293 0.04366  0.0966871313131
 H1 0.286552 0.474134 0.94470  0.0966871313131
 H1 0.190177 0.498296 0.06650  0.0966871313131
 H1 0.029674 0.576323 0.93446  0.0966871313131
 H1 0.19576 0.46814 0.86527  0.0966871313131
 H1 0.914837 0.671776 0.91113  0.0966871313131
 H1 0.88928 0.790343 0.99364  0.0966871313131
 H1 0.85357 0.718093 0.02702  0.0966871313131
 H1 0.079272 0.493423 0.05530  0.0966871313131
 H1 0.088317 0.465696 0.93621  0.0966871313131
 H1 0.206214 0.40033 0.9237  0.0966871313131
 H1 0.977863 0.798225 0.86350  0.0966871313131
 H1 0.342346 0.680769 0.94360  0.0966871313131
 H1 0.320976 0.797789 0.908  0.0966871313131
 H1 0.192668 0.814233 0.91502  0.0966871313131
 H1 0.29206 0.757819 0.85240  0.0966871313131
 H1 0.275589 0.766877 0.03338  0.0966871313131
 H1 0.228169 0.698256 0.0630  0.0966871313131
 H1 0.148115 0.775926 0.04096  0.0966871313131
 H1 0.559864 0.293378 0.89025  0.0966871313131
 H1 0.36571 0.315711 0.0980  0.0966871313131
 H1 0.547812 0.177548 0.89259  0.0966871313131
 H1 0.359884 0.19927 0.09157  0.0966871313131
 H1 0.790189 0.776182 0.97516  0.0966871313131
 H1 0.880051 0.779145 0.84866  0.0966871313131
 H1 0.0 0.728173 0.81187  0.0966871313131
 C1 0.704112 0.969979 0.93056  0.598519284091
 C2 0.815692 0.954765 0.89422  -0.00083559090909
 C2 0.880119 0.950365 0.93151  -0.00083559090909
 C3 0.983988 0.93813 0.89623  -0.189419465909
 C2 0.024379 0.930723 0.8261  -0.00083559090909
 C3 0.958064 0.935144 0.79079  -0.189419465909
 C2 0.853788 0.94692 0.82363  -0.00083559090909
 C4 0.836313 0.960948 0.00756  0.0910569924242
 C5 0.800712 0.036217 0.02485  -0.348202382576
 C5 0.909268 0.91906 0.04522  -0.348202382576
 C4 0.137049 0.919492 0.78943  0.0910569924242
 C5 0.153166 0.982416 0.74909  -0.348202382576
 C5 0.188566 0.857005 0.74386  -0.348202382576
 C4 0.782049 0.954093 0.78425  0.0910569924242
 C5 0.827895 0.904371 0.72540  -0.348202382576
 C5 0.74619 0.027094 0.75958  -0.348202382576
 C1 0.531056 0.995862 0.11988  0.598519284091
 C2 0.541569 0.994295 0.18672  -0.00083559090909
 C3 0.54918 0.935514 0.22607  -0.189419465909
 C3 0.541917 0.051652 0.21367  -0.189419465909
 C6 0.554837 0.936884 0.28997  0.153643659091
 C6 0.548521 0.048039 0.2779  0.153643659091
 C1 0.104896 0.530176 0.56949  0.598519284091
 C2 0.165016 0.545371 0.60596  -0.00083559090909
 C2 0.262166 0.549885 0.56880  -0.00083559090909
 C3 0.318571 0.562094 0.60423  -0.189419465909
 C2 0.281594 0.569365 0.67438  -0.00083559090909
 C3 0.184599 0.5648 0.70956  -0.189419465909
 C2 0.124928 0.55301 0.67657  -0.00083559090909
 C4 0.304746 0.539428 0.49271  0.0910569924242
 C5 0.361356 0.464201 0.47529  -0.348202382576
 C5 0.373439 0.581414 0.45521  -0.348202382576
 C4 0.346357 0.580606 0.71123  0.0910569924242
 C5 0.384904 0.517651 0.75154  -0.348202382576
 C5 0.290107 0.643019 0.75690  -0.348202382576
 C4 0.02121 0.54563 0.71580  0.0910569924242
 C5 0.958596 0.595331 0.7746  -0.348202382576
 C5 0.033648 0.472607 0.74043  -0.348202382576
 C1 0.146744 0.503809 0.38019  0.598519284091
 C2 0.222519 0.505243 0.31343  -0.00083559090909
 C3 0.211134 0.563987 0.2740  -0.189419465909
 C3 0.306696 0.447825 0.28660  -0.189419465909
 C6 0.281963 0.562503 0.21017  0.153643659091
 C6 0.373916 0.451325 0.2223  0.153643659091
 C1 0.634998 0.069462 0.4698  0.598519284091
 C2 0.710268 0.105914 0.45466  -0.00083559090909
 C2 0.811859 0.068741 0.45021  -0.00083559090909
 C3 0.88049 0.104118 0.43797  -0.189419465909
 C2 0.850877 0.174235 0.43059  -0.00083559090909
 C3 0.749399 0.209434 0.43506  -0.189419465909
 C2 0.677925 0.176492 0.44687  -0.00083559090909
 C4 0.843885 0.992681 0.46077  0.0910569924242
 C5 0.825479 0.975382 0.53604  -0.348202382576
 C5 0.954365 0.955097 0.41885  -0.348202382576
 C4 0.926895 0.211037 0.41933  0.0910569924242
 C5 0.902792 0.25138 0.48228  -0.348202382576
 C5 0.932881 0.25663 0.35687  -0.348202382576
 C4 0.566917 0.215752 0.45417  0.0910569924242
 C5 0.553958 0.274565 0.40446  -0.348202382576
 C5 0.5066 0.240404 0.52720  -0.348202382576
 C1 0.650252 0.880113 0.49608  0.598519284091
 C2 0.727281 0.813302 0.4946  -0.00083559090909
 C3 0.77417 0.773876 0.43585  -0.189419465909
 C3 0.754358 0.786453 0.55201  -0.189419465909
 C6 0.843415 0.71001 0.43731  0.153643659091
 C6 0.824955 0.722169 0.54847  0.153643659091
 C1 0.674324 0.430556 0.02982  0.598519284091
 C2 0.770775 0.394127 0.04496  -0.00083559090909
 C2 0.830801 0.43138 0.04949  -0.00083559090909
 C3 0.922434 0.396079 0.0617  -0.189419465909
 C2 0.955382 0.325958 0.06910  -0.00083559090909
 C3 0.893511 0.290682 0.0645  -0.189419465909
 C2 0.801005 0.323547 0.05275  -0.00083559090909
 C4 0.797505 0.507442 0.03903  0.0910569924242
 C5 0.836821 0.524838 0.96381  -0.348202382576
 C5 0.828676 0.545035 0.08106  -0.348202382576
 C4 0.056856 0.289262 0.08037  0.0910569924242
 C5 0.135682 0.24906 0.01737  -0.348202382576
 C5 0.046161 0.243575 0.14277  -0.348202382576
 C4 0.736372 0.284201 0.04554  0.0910569924242
 C5 0.732518 0.225445 0.09534  -0.348202382576
 C5 0.773244 0.25942 0.9725  -0.348202382576
 C1 0.526885 0.619929 0.0040  0.598519284091
 C2 0.535916 0.686742 0.005  -0.00083559090909
 C3 0.485015 0.726104 0.06439  -0.189419465909
 C3 0.593401 0.713648 0.94827  -0.189419465909
 C6 0.492071 0.789981 0.06302  0.153643659091
 C6 0.596451 0.777935 0.95188  0.153643659091
 C1 0.295873 0.030021 0.06945  0.598519284091
 C2 0.184291 0.045238 0.10578  -0.00083559090909
 C2 0.119864 0.04964 0.06849  -0.00083559090909
 C3 0.015994 0.061877 0.10377  -0.189419465909
 C2 0.975602 0.069286 0.17390  -0.00083559090909
 C3 0.041917 0.064864 0.20922  -0.189419465909
 C2 0.146194 0.053085 0.17638  -0.00083559090909
 C4 0.163669 0.039055 0.99245  0.0910569924242
 C5 0.199268 0.963786 0.97516  -0.348202382576
 C5 0.090716 0.080945 0.95478  -0.348202382576
 C4 0.86293 0.080519 0.21058  0.0910569924242
 C5 0.84681 0.017599 0.25092  -0.348202382576
 C5 0.811415 0.14301 0.25614  -0.348202382576
 C4 0.217931 0.045912 0.21576  0.0910569924242
 C5 0.172084 0.095636 0.27461  -0.348202382576
 C5 0.253786 0.972911 0.24043  -0.348202382576
 C1 0.468933 0.004136 0.88013  0.598519284091
 C2 0.458422 0.005703 0.81329  -0.00083559090909
 C3 0.450813 0.064483 0.77394  -0.189419465909
 C3 0.458072 0.948346 0.78634  -0.189419465909
 C6 0.445157 0.063113 0.71004  0.153643659091
 C6 0.451469 0.951959 0.72203  0.153643659091
 C1 0.89509 0.469824 0.43051  0.598519284091
 C2 0.834965 0.454632 0.39405  -0.00083559090909
 C2 0.737814 0.45012 0.43120  -0.00083559090909
 C3 0.681408 0.437914 0.39577  -0.189419465909
 C2 0.718384 0.430645 0.32562  -0.00083559090909
 C3 0.815379 0.435211 0.29044  -0.189419465909
 C2 0.875052 0.446998 0.32343  -0.00083559090909
 C4 0.695234 0.460576 0.50729  0.0910569924242
 C5 0.638624 0.535804 0.52471  -0.348202382576
 C5 0.626541 0.418591 0.54480  -0.348202382576
 C4 0.653621 0.419406 0.28877  0.0910569924242
 C5 0.615076 0.482362 0.24846  -0.348202382576
 C5 0.709871 0.356993 0.24310  -0.348202382576
 C4 0.978769 0.454381 0.28421  0.0910569924242
 C5 0.041382 0.404683 0.22538  -0.348202382576
 C5 0.966327 0.527405 0.25958  -0.348202382576
 C1 0.853239 0.496191 0.61982  0.598519284091
 C2 0.777462 0.494759 0.68658  -0.00083559090909
 C3 0.788845 0.436017 0.72600  -0.189419465909
 C3 0.693286 0.552179 0.71341  -0.189419465909
 C6 0.718014 0.437503 0.78984  0.153643659091
 C6 0.626064 0.54868 0.77768  0.153643659091
 C1 0.364995 0.93054 0.53015  0.598519284091
 C2 0.289723 0.894089 0.54535  -0.00083559090909
 C2 0.188133 0.931264 0.549  -0.00083559090909
 C3 0.1195 0.895889 0.5620  -0.189419465909
 C2 0.149111 0.825771 0.56942  -0.00083559090909
 C3 0.250589 0.790571 0.56494  -0.189419465909
 C2 0.322064 0.823511 0.55314  -0.00083559090909
 C4 0.156109 0.007324 0.53923  0.0910569924242
 C5 0.17452 0.024621 0.46396  -0.348202382576
 C5 0.045629 0.044909 0.58115  -0.348202382576
 C4 0.073091 0.788971 0.58067  0.0910569924242
 C5 0.097193 0.748628 0.51772  -0.348202382576
 C5 0.067102 0.743378 0.64314  -0.348202382576
 C4 0.433071 0.784251 0.54584  0.0910569924242
 C5 0.446028 0.725436 0.59555  -0.348202382576
 C5 0.49339 0.7596 0.47280  -0.348202382576
 C1 0.349746 0.119887 0.50392  0.598519284091
 C2 0.272719 0.186698 0.50540  -0.00083559090909
 C3 0.225835 0.226128 0.56415  -0.189419465909
 C3 0.245639 0.213545 0.44800  -0.189419465909
 C6 0.15659 0.289993 0.56269  0.153643659091
 C6 0.175043 0.277829 0.45153  0.153643659091
 C1 0.325652 0.569455 0.97019  0.598519284091
 C2 0.229202 0.605884 0.95505  -0.00083559090909
 C2 0.169177 0.568631 0.95052  -0.00083559090909
 C3 0.077544 0.603933 0.93824  -0.189419465909
 C2 0.044596 0.674053 0.93091  -0.00083559090909
 C3 0.106467 0.709329 0.93544  -0.189419465909
 C2 0.198973 0.676464 0.94726  -0.00083559090909
 C4 0.202473 0.492569 0.96098  0.0910569924242
 C5 0.163157 0.475172 0.036  -0.348202382576
 C5 0.171303 0.454976 0.91895  -0.348202382576
 C4 0.943122 0.71075 0.91964  0.0910569924242
 C5 0.864298 0.750954 0.98263  -0.348202382576
 C5 0.953818 0.756435 0.85724  -0.348202382576
 C4 0.263607 0.71581 0.9544  0.0910569924242
 C5 0.267466 0.774562 0.90466  -0.348202382576
 C5 0.226734 0.740596 0.02742  -0.348202382576
 C1 0.473099 0.380079 0.99596  0.598519284091
 C2 0.464076 0.313263 0.99442  -0.00083559090909
 C3 0.514983 0.273899 0.93563  -0.189419465909
 C3 0.406591 0.286356 0.05175  -0.189419465909
 C6 0.50793 0.21002 0.93700  0.153643659091
 C6 0.403545 0.222068 0.04813  0.153643659091
 N1 0.554209 0.991984 0.31635  -0.330450090909
 N1 0.362343 0.507332 0.1838  -0.330450090909
 N1 0.868949 0.683725 0.49246  -0.330450090909
 N1 0.546348 0.816328 0.00791  -0.330450090909
 N1 0.445781 0.008013 0.68366  -0.330450090909
 N1 0.637633 0.492675 0.81612  -0.330450090909
 N1 0.131053 0.316276 0.5075  -0.330450090909
 N1 0.453652 0.183673 0.99210  -0.330450090909
 O1 0.666838 0.92178 0.95065  -0.526787590909
 O1 0.534354 0.941381 0.09630  -0.526787590909
 O1 0.647463 0.032207 0.94169  -0.526787590909
 O1 0.516967 0.051831 0.08682  -0.526787590909
 O1 0.039838 0.578366 0.54923  -0.526787590909
 O1 0.072321 0.558357 0.40353  -0.526787590909
 O1 0.121117 0.467946 0.55849  -0.526787590909
 O1 0.155193 0.447953 0.41340  -0.526787590909
 O1 0.617818 0.049246 0.4216  -0.526787590909
 O1 0.63011 0.903557 0.44157  -0.526787590909
 O1 0.589391 0.058391 0.53211  -0.526787590909
 O1 0.603256 0.913289 0.55199  -0.526787590909
 O1 0.589132 0.450691 0.07808  -0.526787590909
 O1 0.475958 0.5964 0.05859  -0.526787590909
 O1 0.679489 0.441752 0.96764  -0.526787590909
 O1 0.5684 0.586849 0.9481  -0.526787590909
 O1 0.333148 0.07822 0.04935  -0.526787590909
 O1 0.465636 0.058617 0.90371  -0.526787590909
 O1 0.352522 0.967792 0.05832  -0.526787590909
 O1 0.483021 0.948168 0.91319  -0.526787590909
 O1 0.96014 0.421632 0.45078  -0.526787590909
 O1 0.927661 0.441643 0.59648  -0.526787590909
 O1 0.878864 0.532053 0.44152  -0.526787590909
 O1 0.844792 0.552046 0.58661  -0.526787590909
 O1 0.382173 0.950757 0.57833  -0.526787590909
 O1 0.369888 0.096443 0.55844  -0.526787590909
 O1 0.410606 0.941608 0.46790  -0.526787590909
 O1 0.39674 0.08671 0.4480  -0.526787590909
 O1 0.410843 0.549315 0.92193  -0.526787590909
 O1 0.524025 0.403609 0.94142  -0.526787590909
 O1 0.320488 0.558267 0.03237  -0.526787590909
 O1 0.431577 0.413162 0.0518  -0.526787590909
