#======================================================================

# CRYSTAL DATA

#----------------------------------------------------------------------

data_VESTA_phase_1


_pd_phase_name                         MOF
_cell_length_a                         18.59100
_cell_length_b                         14.43000
_cell_length_c                         17.45900
_cell_angle_alpha                      99.03900
_cell_angle_beta                       89.94700
_cell_angle_gamma                      108.70800
_symmetry_space_group_name_H-M         "P 1"
_symmetry_Int_Tables_number            1

loop_
_symmetry_equiv_pos_as_xyz
   "x, y, z"

loop_
   _atom_site_label
   _atom_site_fract_x
   _atom_site_fract_y
   _atom_site_fract_z
 _atom_site_charge
 Zn1 0.487598 0.347855 0.3393  0.887309728261
 Zn1 0.987604 0.347851 0.3393  0.887309728261
 Zn2 0.283921 0.344363 0.54646  0.965534728261
 Zn2 0.783928 0.344362 0.54646  0.965534728261
 Zn1 0.31301 0.651519 0.16034  0.887309728261
 Zn1 0.813019 0.651527 0.16034  0.887309728261
 Zn2 0.110591 0.656013 0.95378  0.965534728261
 Zn2 0.610594 0.656016 0.95378  0.965534728261
 Zn1 0.012411 0.652156 0.66062  0.887309728261
 Zn1 0.512417 0.652156 0.6606  0.887309728261
 Zn2 0.216093 0.655656 0.45354  0.965534728261
 Zn2 0.7161 0.655659 0.45354  0.965534728261
 Zn1 0.18699 0.348473 0.83966  0.887309728261
 Zn1 0.686997 0.348481 0.83966  0.887309728261
 Zn2 0.38942 0.343994 0.0462  0.965534728261
 Zn2 0.889423 0.343995 0.0462  0.965534728261
 H1 0.073977 0.250559 0.33942  0.444169728261
 H1 0.573982 0.250562 0.33942  0.444169728261
 H1 0.062441 0.26931 0.43219  0.444169728261
 H1 0.562447 0.269311 0.4321  0.444169728261
 H2 0.335955 0.477998 0.32478  0.337549728261
 H2 0.83596 0.477994 0.32478  0.337549728261
 H2 0.454128 0.596433 0.45372  0.337549728261
 H2 0.954129 0.596425 0.45373  0.337549728261
 H2 0.021496 0.709968 0.37356  0.337549728261
 H2 0.521503 0.709973 0.3735  0.337549728261
 H2 0.029396 0.565753 0.25516  0.337549728261
 H2 0.529405 0.565752 0.25516  0.337549728261
 H2 0.310308 0.275906 0.27596  0.337549728261
 H2 0.810319 0.275917 0.27595  0.337549728261
 H2 0.222753 0.136658 0.1874  0.337549728261
 H2 0.722761 0.136671 0.18741  0.337549728261
 H2 0.406821 0.01325 0.15267  0.337549728261
 H2 0.906814 0.013233 0.15268  0.337549728261
 H2 0.488138 0.161545 0.24001  0.337549728261
 H2 0.988135 0.161526 0.24002  0.337549728261
 H2 0.073765 0.824139 0.06100  0.337549728261
 H2 0.573766 0.824141 0.0610  0.337549728261
 H2 0.149453 0.975732 0.15280  0.337549728261
 H2 0.649454 0.975733 0.15280  0.337549728261
 H2 0.351039 0.942194 0.04419  0.337549728261
 H2 0.851039 0.942202 0.0441  0.337549728261
 H2 0.267305 0.789785 0.96191  0.337549728261
 H2 0.767305 0.789794 0.96190  0.337549728261
 H1 0.448162 0.74852 0.1603  0.444169728261
 H1 0.94817 0.748536 0.16037  0.444169728261
 H1 0.427403 0.730657 0.0676  0.444169728261
 H1 0.927417 0.730664 0.06766  0.444169728261
 H2 0.096906 0.521009 0.17483  0.337549728261
 H2 0.596913 0.521018 0.17483  0.337549728261
 H2 0.156298 0.402771 0.04567  0.337549728261
 H2 0.656308 0.402779 0.04568  0.337549728261
 H2 0.167016 0.289281 0.12595  0.337549728261
 H2 0.667027 0.289291 0.12595  0.337549728261
 H2 0.246483 0.43369 0.24435  0.337549728261
 H2 0.746492 0.433703 0.2443  0.337549728261
 H2 0.171858 0.72374 0.22513  0.337549728261
 H2 0.671872 0.723754 0.22513  0.337549728261
 H2 0.154571 0.863394 0.3141  0.337549728261
 H2 0.654585 0.863408 0.31415  0.337549728261
 H2 0.40023 0.985837 0.34642  0.337549728261
 H2 0.900242 0.985827 0.34645  0.337549728261
 H2 0.406808 0.837286 0.25875  0.337549728261
 H2 0.906821 0.837276 0.25877  0.337549728261
 H2 0.162633 0.176433 0.44077  0.337549728261
 H2 0.662653 0.176449 0.44076  0.337549728261
 H2 0.161885 0.024354 0.3488  0.337549728261
 H2 0.66191 0.024373 0.34880  0.337549728261
 H2 0.38088 0.057393 0.45510  0.337549728261
 H2 0.880878 0.057377 0.4551  0.337549728261
 H2 0.373981 0.210321 0.53750  0.337549728261
 H2 0.873978 0.210305 0.53753  0.337549728261
 H1 0.426027 0.749447 0.66058  0.444169728261
 H1 0.926035 0.749448 0.66058  0.444169728261
 H1 0.437574 0.730705 0.56781  0.444169728261
 H1 0.93758 0.730703 0.56781  0.444169728261
 H2 0.164057 0.522003 0.6752  0.337549728261
 H2 0.664063 0.522003 0.67520  0.337549728261
 H2 0.045895 0.403592 0.54625  0.337549728261
 H2 0.545903 0.403593 0.5462  0.337549728261
 H2 0.478519 0.290031 0.62640  0.337549728261
 H2 0.978523 0.290032 0.62640  0.337549728261
 H2 0.470624 0.434227 0.74482  0.337549728261
 H2 0.97063 0.434229 0.74482  0.337549728261
 H2 0.1897 0.724087 0.7240  0.337549728261
 H2 0.689702 0.724088 0.72404  0.337549728261
 H2 0.277262 0.863337 0.81257  0.337549728261
 H2 0.777262 0.863341 0.81257  0.337549728261
 H2 0.093205 0.986766 0.8473  0.337549728261
 H2 0.593201 0.986764 0.84732  0.337549728261
 H2 0.01188 0.838468 0.75998  0.337549728261
 H2 0.511879 0.838464 0.75998  0.337549728261
 H2 0.426253 0.175868 0.9389  0.337549728261
 H2 0.926253 0.175863 0.93899  0.337549728261
 H2 0.350568 0.024277 0.84719  0.337549728261
 H2 0.850566 0.024272 0.847  0.337549728261
 H2 0.148981 0.057798 0.9558  0.337549728261
 H2 0.648979 0.057811 0.95580  0.337549728261
 H2 0.232713 0.210204 0.03809  0.337549728261
 H2 0.732712 0.210217 0.0380  0.337549728261
 H1 0.051842 0.251424 0.83960  0.444169728261
 H1 0.551849 0.251428 0.83960  0.444169728261
 H1 0.072574 0.269331 0.93231  0.444169728261
 H1 0.57258 0.269338 0.93231  0.444169728261
 H2 0.403099 0.47897 0.82516  0.337549728261
 H2 0.903105 0.478977 0.82517  0.337549728261
 H2 0.343705 0.597214 0.95431  0.337549728261
 H2 0.843713 0.59722 0.95432  0.337549728261
 H2 0.332977 0.710697 0.87404  0.337549728261
 H2 0.832989 0.710707 0.87404  0.337549728261
 H2 0.253509 0.566284 0.75564  0.337549728261
 H2 0.75352 0.566297 0.75564  0.337549728261
 H2 0.328144 0.276276 0.77486  0.337549728261
 H2 0.828154 0.276274 0.77488  0.337549728261
 H2 0.345446 0.136629 0.6858  0.337549728261
 H2 0.845458 0.136623 0.6858  0.337549728261
 H2 0.099789 0.014172 0.65355  0.337549728261
 H2 0.599801 0.014178 0.65355  0.337549728261
 H2 0.093196 0.16272 0.74121  0.337549728261
 H2 0.593207 0.16273 0.74121  0.337549728261
 H2 0.33739 0.823588 0.5592  0.337549728261
 H2 0.837392 0.823573 0.5592  0.337549728261
 H2 0.33814 0.975667 0.65117  0.337549728261
 H2 0.838141 0.975648 0.65119  0.337549728261
 H2 0.119142 0.942625 0.54489  0.337549728261
 H2 0.619165 0.942646 0.5448  0.337549728261
 H2 0.126038 0.789696 0.46248  0.337549728261
 H2 0.626058 0.789717 0.46248  0.337549728261
 C1 0.387265 0.48676 0.36002  0.0492422282609
 C1 0.887269 0.486756 0.36002  0.0492422282609
 C2 0.419557 0.594583 0.40192  -0.194690271739
 C2 0.919561 0.594578 0.40193  -0.194690271739
 C2 0.476042 0.645154 0.34386  -0.194690271739
 C2 0.976048 0.645152 0.34387  -0.194690271739
 C1 0.008572 0.561299 0.31380  0.0492422282609
 C1 0.50858 0.561301 0.31380  0.0492422282609
 C3 0.367959 0.412873 0.41660  0.656528478261
 C3 0.867963 0.412867 0.41660  0.656528478261
 C3 0.361655 0.644919 0.43195  0.656528478261
 C3 0.861659 0.644916 0.43195  0.656528478261
 C3 0.443826 0.676482 0.27476  0.656528478261
 C3 0.943833 0.676485 0.27477  0.656528478261
 C3 0.073502 0.560254 0.36807  0.656528478261
 C3 0.573509 0.560258 0.36807  0.656528478261
 C4 0.330138 0.216594 0.24742  0.192164728261
 C4 0.830145 0.216598 0.24742  0.192164728261
 C5 0.28062 0.136734 0.19745  -0.196754021739
 C5 0.780626 0.136741 0.1974  -0.196754021739
 C6 0.306782 0.060748 0.1607  0.0885097282609
 C6 0.806783 0.060748 0.16075  0.0885097282609
 C5 0.383067 0.070581 0.17717  -0.196754021739
 C5 0.883065 0.07057 0.17718  -0.196754021739
 C4 0.428751 0.152752 0.22721  0.192164728261
 C4 0.928751 0.152739 0.22722  0.192164728261
 C4 0.135516 0.853708 0.06043  0.192164728261
 C4 0.635517 0.85371 0.06043  0.192164728261
 C5 0.178417 0.938518 0.11038  -0.196754021739
 C5 0.678418 0.93852 0.1103  -0.196754021739
 C6 0.257931 0.973141 0.10724  0.0885097282609
 C6 0.757932 0.973144 0.10724  0.0885097282609
 C5 0.290029 0.919231 0.05132  -0.196754021739
 C5 0.79003 0.919236 0.05131  -0.196754021739
 C4 0.243821 0.834599 0.00417  0.192164728261
 C4 0.743821 0.834606 0.00417  0.192164728261
 C1 0.143872 0.512524 0.13940  0.0492422282609
 C1 0.64388 0.512533 0.1394  0.0492422282609
 C2 0.122624 0.404723 0.09752  -0.194690271739
 C2 0.622633 0.404731 0.09752  -0.194690271739
 C2 0.153812 0.354135 0.15563  -0.194690271739
 C2 0.653821 0.354145 0.15563  -0.194690271739
 C1 0.228075 0.437997 0.18564  0.0492422282609
 C1 0.728084 0.438008 0.18564  0.0492422282609
 C3 0.16117 0.586812 0.08310  0.656528478261
 C3 0.661179 0.586821 0.08310  0.656528478261
 C3 0.039665 0.354728 0.06780  0.656528478261
 C3 0.539674 0.354734 0.06780  0.656528478261
 C3 0.105773 0.322815 0.2247  0.656528478261
 C3 0.605782 0.322824 0.22475  0.656528478261
 C3 0.293816 0.439147 0.13158  0.656528478261
 C3 0.793823 0.439158 0.13158  0.656528478261
 C4 0.221465 0.782956 0.2532  0.192164728261
 C4 0.721478 0.782966 0.2532  0.192164728261
 C5 0.212237 0.863012 0.30345  -0.196754021739
 C5 0.71225 0.863021 0.3034  -0.196754021739
 C6 0.276554 0.938848 0.33957  0.0885097282609
 C6 0.776568 0.93885 0.33958  0.0885097282609
 C5 0.347718 0.928666 0.32238  -0.196754021739
 C5 0.84773 0.928661 0.32240  -0.196754021739
 C4 0.351978 0.846338 0.27215  0.192164728261
 C4 0.851991 0.846334 0.27217  0.192164728261
 C4 0.209564 0.146598 0.44075  0.192164728261
 C4 0.709579 0.146607 0.44075  0.192164728261
 C5 0.209712 0.061548 0.39076  -0.196754021739
 C5 0.70973 0.061559 0.39076  -0.196754021739
 C6 0.271894 0.026657 0.39324  0.0885097282609
 C6 0.771906 0.026659 0.39324  0.0885097282609
 C5 0.331326 0.080559 0.44854  -0.196754021739
 C5 0.83133 0.080551 0.44856  -0.196754021739
 C4 0.327789 0.165474 0.49574  0.192164728261
 C4 0.827792 0.165465 0.49576  0.192164728261
 C1 0.112748 0.513248 0.63997  0.0492422282609
 C1 0.612755 0.513249 0.63997  0.0492422282609
 C2 0.080458 0.405431 0.59805  -0.194690271739
 C2 0.580466 0.405432 0.59805  -0.194690271739
 C2 0.023969 0.354842 0.65610  -0.194690271739
 C2 0.523977 0.354841 0.65610  -0.194690271739
 C1 0.491442 0.438693 0.68618  0.0492422282609
 C1 0.991448 0.438695 0.68618  0.0492422282609
 C3 0.132057 0.587149 0.58339  0.656528478261
 C3 0.632064 0.587152 0.58339  0.656528478261
 C3 0.138362 0.355097 0.56803  0.656528478261
 C3 0.638369 0.355098 0.56803  0.656528478261
 C3 0.056183 0.323499 0.72520  0.656528478261
 C3 0.55619 0.3235 0.72520  0.656528478261
 C3 0.426506 0.439749 0.63193  0.656528478261
 C3 0.926513 0.43975 0.63193  0.656528478261
 C4 0.169874 0.783404 0.75257  0.192164728261
 C4 0.669874 0.783405 0.75258  0.192164728261
 C5 0.219395 0.863264 0.80254  -0.196754021739
 C5 0.719395 0.863267 0.80255  -0.196754021739
 C6 0.193238 0.939256 0.83924  0.0885097282609
 C6 0.693236 0.939258 0.83925  0.0885097282609
 C5 0.116954 0.929429 0.8228  -0.196754021739
 C5 0.616952 0.929429 0.82282  -0.196754021739
 C4 0.071266 0.847257 0.77278  0.192164728261
 C4 0.571265 0.847256 0.77278  0.192164728261
 C4 0.364503 0.146297 0.93956  0.192164728261
 C4 0.864502 0.146296 0.93956  0.192164728261
 C5 0.321603 0.061487 0.88961  -0.196754021739
 C5 0.821602 0.061486 0.88962  -0.196754021739
 C6 0.242089 0.02686 0.89275  0.0885097282609
 C6 0.742087 0.026864 0.89275  0.0885097282609
 C5 0.209991 0.080766 0.94868  -0.196754021739
 C5 0.709989 0.080774 0.94867  -0.196754021739
 C4 0.256198 0.165396 0.99583  0.192164728261
 C4 0.756197 0.165404 0.99582  0.192164728261
 C1 0.356133 0.48746 0.8605  0.0492422282609
 C1 0.85614 0.487467 0.86059  0.0492422282609
 C2 0.377379 0.595264 0.90247  -0.194690271739
 C2 0.877387 0.59527 0.90247  -0.194690271739
 C2 0.346186 0.645847 0.84436  -0.194690271739
 C2 0.846196 0.645855 0.84436  -0.194690271739
 C1 0.271924 0.56198 0.81435  0.0492422282609
 C1 0.771933 0.561991 0.81435  0.0492422282609
 C3 0.338832 0.413179 0.91689  0.656528478261
 C3 0.838838 0.413184 0.91689  0.656528478261
 C3 0.460337 0.645273 0.93219  0.656528478261
 C3 0.960346 0.645277 0.93219  0.656528478261
 C3 0.394225 0.677175 0.77524  0.656528478261
 C3 0.894236 0.677182 0.77525  0.656528478261
 C3 0.206189 0.560829 0.86842  0.656528478261
 C3 0.706196 0.560838 0.86842  0.656528478261
 C4 0.278541 0.217057 0.7467  0.192164728261
 C4 0.778551 0.217057 0.74678  0.192164728261
 C5 0.287778 0.137005 0.69654  -0.196754021739
 C5 0.787789 0.137003 0.69655  -0.196754021739
 C6 0.223464 0.061168 0.6604  0.0885097282609
 C6 0.723476 0.061168 0.6604  0.0885097282609
 C5 0.152298 0.071345 0.67759  -0.196754021739
 C5 0.65231 0.07135 0.67760  -0.196754021739
 C4 0.148029 0.15367 0.72782  0.192164728261
 C4 0.64804 0.153677 0.72782  0.192164728261
 C4 0.290459 0.853423 0.55923  0.192164728261
 C4 0.790465 0.853415 0.55925  0.192164728261
 C5 0.290311 0.938472 0.60922  -0.196754021739
 C5 0.790317 0.938462 0.60924  -0.196754021739
 C6 0.228128 0.973361 0.60675  0.0885097282609
 C6 0.72814 0.973361 0.60676  0.0885097282609
 C5 0.168696 0.91946 0.55145  -0.196754021739
 C5 0.668713 0.919471 0.55145  -0.196754021739
 C4 0.172231 0.834545 0.5042  0.192164728261
 C4 0.672247 0.834557 0.50424  0.192164728261
 N1 0.4032 0.225353 0.26267  -0.357462771739
 N1 0.903204 0.225349 0.26267  -0.357462771739
 N1 0.167539 0.801544 0.00816  -0.357462771739
 N1 0.667539 0.801549 0.00816  -0.357462771739
 N1 0.289971 0.773901 0.2372  -0.357462771739
 N1 0.789985 0.773904 0.23725  -0.357462771739
 N1 0.268024 0.198752 0.49239  -0.357462771739
 N1 0.768032 0.198751 0.49239  -0.357462771739
 N1 0.096813 0.774649 0.73733  -0.357462771739
 N1 0.596814 0.774649 0.73733  -0.357462771739
 N1 0.33248 0.198455 0.99183  -0.357462771739
 N1 0.832479 0.198459 0.99183  -0.357462771739
 N1 0.210032 0.226108 0.76274  -0.357462771739
 N1 0.710042 0.226113 0.76274  -0.357462771739
 N1 0.231996 0.801268 0.50760  -0.357462771739
 N1 0.732007 0.801271 0.5076  -0.357462771739
 O1 0.444864 0.470526 0.30811  -0.286895271739
 O1 0.944869 0.470524 0.30812  -0.286895271739
 O2 0.034805 0.250289 0.37989  -0.719370271739
 O2 0.534811 0.250291 0.37989  -0.719370271739
 O3 0.405788 0.354489 0.42029  -0.573305271739
 O3 0.905792 0.354483 0.42029  -0.573305271739
 O3 0.312076 0.417133 0.45752  -0.573305271739
 O3 0.81208 0.417127 0.45752  -0.573305271739
 O3 0.293995 0.609542 0.40051  -0.573305271739
 O3 0.794 0.609541 0.40051  -0.573305271739
 O4 0.383974 0.718244 0.48612  -0.645125271739
 O4 0.883979 0.71824 0.4861  -0.645125271739
 O3 0.373933 0.63237 0.25422  -0.573305271739
 O3 0.873942 0.632368 0.25422  -0.573305271739
 O4 0.490468 0.742846 0.24286  -0.645125271739
 O4 0.990474 0.742857 0.24288  -0.645125271739
 O3 0.129538 0.641737 0.37999  -0.573305271739
 O3 0.629544 0.641742 0.37999  -0.573305271739
 O3 0.0687 0.484139 0.39672  -0.573305271739
 O3 0.568707 0.484144 0.39672  -0.573305271739
 O1 0.209611 0.528791 0.19105  -0.286895271739
 O1 0.709619 0.528802 0.19105  -0.286895271739
 O2 0.409166 0.749207 0.12007  -0.719370271739
 O2 0.909176 0.749219 0.12008  -0.719370271739
 O3 0.228044 0.645366 0.07954  -0.573305271739
 O3 0.728052 0.645377 0.07954  -0.573305271739
 O3 0.103124 0.582869 0.04252  -0.573305271739
 O3 0.603132 0.582875 0.04252  -0.573305271739
 O3 0.489928 0.390584 0.09949  -0.573305271739
 O3 0.989932 0.390579 0.09949  -0.573305271739
 O4 0.024977 0.28133 0.01365  -0.645125271739
 O4 0.524986 0.281337 0.01365  -0.645125271739
 O3 0.057999 0.367226 0.24537  -0.573305271739
 O3 0.558008 0.367235 0.24537  -0.573305271739
 O4 0.118984 0.256216 0.2566  -0.645125271739
 O4 0.618992 0.256223 0.2566  -0.645125271739
 O3 0.309463 0.357777 0.11981  -0.573305271739
 O3 0.80947 0.357788 0.11981  -0.573305271739
 O3 0.32702 0.515393 0.10310  -0.573305271739
 O3 0.827026 0.515403 0.10310  -0.573305271739
 O1 0.055147 0.529471 0.69187  -0.286895271739
 O1 0.555152 0.529471 0.69186  -0.286895271739
 O2 0.465203 0.749725 0.62011  -0.719370271739
 O2 0.965211 0.749725 0.62011  -0.719370271739
 O3 0.094227 0.645533 0.57972  -0.573305271739
 O3 0.594235 0.645537 0.57972  -0.573305271739
 O3 0.187943 0.582896 0.54248  -0.573305271739
 O3 0.68795 0.582899 0.54248  -0.573305271739
 O3 0.206017 0.390475 0.59948  -0.573305271739
 O3 0.706024 0.390476 0.59948  -0.573305271739
 O4 0.116046 0.281771 0.51386  -0.645125271739
 O4 0.616054 0.281772 0.51386  -0.645125271739
 O3 0.126067 0.367637 0.74577  -0.573305271739
 O3 0.626074 0.367639 0.74577  -0.573305271739
 O4 0.009546 0.257108 0.75708  -0.645125271739
 O4 0.509554 0.257109 0.75708  -0.645125271739
 O3 0.370466 0.358269 0.6200  -0.573305271739
 O3 0.870473 0.358271 0.62002  -0.573305271739
 O3 0.431305 0.515868 0.60328  -0.573305271739
 O3 0.931311 0.515869 0.60329  -0.573305271739
 O1 0.290394 0.471189 0.80893  -0.286895271739
 O1 0.790402 0.471198 0.80894  -0.286895271739
 O2 0.090828 0.250763 0.87991  -0.719370271739
 O2 0.590835 0.250769 0.87991  -0.719370271739
 O3 0.271958 0.354627 0.92046  -0.573305271739
 O3 0.771963 0.354634 0.92046  -0.573305271739
 O3 0.396879 0.417129 0.95748  -0.573305271739
 O3 0.896884 0.417132 0.95748  -0.573305271739
 O3 0.010083 0.609426 0.9005  -0.573305271739
 O3 0.510087 0.609423 0.90051  -0.573305271739
 O4 0.475021 0.718681 0.98633  -0.645125271739
 O4 0.975029 0.718682 0.9863  -0.645125271739
 O3 0.442 0.632765 0.7546  -0.573305271739
 O3 0.942012 0.632774 0.75462  -0.573305271739
 O4 0.381017 0.743781 0.74338  -0.645125271739
 O4 0.881026 0.743784 0.74338  -0.645125271739
 O3 0.190542 0.642197 0.88020  -0.573305271739
 O3 0.690549 0.642207 0.88020  -0.573305271739
 O3 0.172992 0.484584 0.89690  -0.573305271739
 O3 0.672997 0.484592 0.89690  -0.573305271739
