#======================================================================

# CRYSTAL DATA

#----------------------------------------------------------------------

data_VESTA_phase_1


_pd_phase_name                         MOF
_cell_length_a                         13.96800
_cell_length_b                         14.56200
_cell_length_c                         24.16500
_cell_angle_alpha                      89.97900
_cell_angle_beta                       90.00500
_cell_angle_gamma                      116.97100
_symmetry_space_group_name_H-M         "P 1"
_symmetry_Int_Tables_number            1

loop_
_symmetry_equiv_pos_as_xyz
   "x, y, z"

loop_
   _atom_site_label
   _atom_site_fract_x
   _atom_site_fract_y
   _atom_site_fract_z
 _atom_site_charge
 Ca1 0.023828 0.020823 0.64880  1.55677509009
 Ca1 0.976376 0.47867 0.14880  1.55677509009
 Ca1 0.976258 0.97919 0.35127  1.55677509009
 Ca1 0.023693 0.521287 0.85129  1.55677509009
 Ca2 3e-05 1.8e-05 0.50004  1.59908009009
 Ca2 1.1e-05 0.499991 5e-0  1.59908009009
 Si1 0.712166 0.385701 0.50394  0.87727009009
 Si1 0.288065 0.113962 0.00391  0.87727009009
 Si1 0.287909 0.614318 0.49614  0.87727009009
 Si1 0.712003 0.885986 0.99617  0.87727009009
 H1 0.853493 0.414282 0.604  0.0921132150901
 H1 0.933813 0.30686 0.64454  0.0921132150901
 H1 0.811551 0.096518 0.50796  0.0921132150901
 H1 0.728778 0.200467 0.4682  0.0921132150901
 H1 0.593958 0.214236 0.58216  0.0921132150901
 H1 0.404583 0.121325 0.61232  0.0921132150901
 H1 0.31927 0.300989 0.49940  0.0921132150901
 H1 0.510652 0.404055 0.47437  0.0921132150901
 H1 0.88279 0.590987 0.46307  0.0921132150901
 H1 0.971112 0.763531 0.50510  0.0921132150901
 H1 0.766374 0.654611 0.64749  0.0921132150901
 H1 0.674711 0.479133 0.60582  0.0921132150901
 H1 0.562988 0.327026 0.40313  0.0921132150901
 H1 0.597353 0.33423 0.30245  0.0921132150901
 H1 0.936151 0.453937 0.33309  0.0921132150901
 H1 0.902999 0.443265 0.43406  0.0921132150901
 H2 0.733039 0.368266 0.17784  0.40229009009
 H1 0.14687 0.085448 0.10449  0.0921132150901
 H1 0.066492 0.19282 0.1444  0.0921132150901
 H1 0.188305 0.402943 0.00771  0.0921132150901
 H1 0.271105 0.299035 0.96804  0.0921132150901
 H1 0.406135 0.285296 0.08216  0.0921132150901
 H1 0.595471 0.378207 0.11236  0.0921132150901
 H1 0.681003 0.198842 0.99942  0.0921132150901
 H1 0.48966 0.095766 0.97437  0.0921132150901
 H1 0.117132 0.908745 0.96323  0.0921132150901
 H1 0.028867 0.736196 0.00530  0.0921132150901
 H1 0.234271 0.84486 0.14743  0.0921132150901
 H1 0.325854 0.020399 0.10573  0.0921132150901
 H1 0.437293 0.17264 0.90308  0.0921132150901
 H1 0.402925 0.165403 0.80241  0.0921132150901
 H1 0.064117 0.045593 0.83306  0.0921132150901
 H1 0.09727 0.056312 0.93403  0.0921132150901
 H2 0.267135 0.131346 0.67779  0.40229009009
 H1 0.146604 0.585741 0.39559  0.0921132150901
 H1 0.06628 0.693151 0.35554  0.0921132150901
 H1 0.18849 0.903488 0.49211  0.0921132150901
 H1 0.271264 0.79955 0.53184  0.0921132150901
 H1 0.406123 0.785775 0.41792  0.0921132150901
 H1 0.595503 0.878686 0.3877  0.0921132150901
 H1 0.680793 0.699018 0.50070  0.0921132150901
 H1 0.489406 0.595951 0.52571  0.0921132150901
 H1 0.117286 0.409022 0.53702  0.0921132150901
 H1 0.028959 0.23648 0.49499  0.0921132150901
 H1 0.233675 0.345408 0.352  0.0921132150901
 H1 0.325348 0.520881 0.39426  0.0921132150901
 H1 0.437094 0.672972 0.59697  0.0921132150901
 H1 0.402714 0.665743 0.69764  0.0921132150901
 H1 0.063926 0.546086 0.66699  0.0921132150901
 H1 0.097094 0.556779 0.56602  0.0921132150901
 H2 0.266959 0.631667 0.82226  0.40229009009
 H1 0.853179 0.914494 0.89559  0.0921132150901
 H1 0.933573 0.807135 0.85561  0.0921132150901
 H1 0.811787 0.597017 0.99238  0.0921132150901
 H1 0.728985 0.700919 0.03205  0.0921132150901
 H1 0.593915 0.714654 0.91792  0.0921132150901
 H1 0.404564 0.621745 0.88774  0.0921132150901
 H1 0.319087 0.80114 0.  0.0921132150901
 H1 0.510442 0.904216 0.0257  0.0921132150901
 H1 0.882913 0.091203 0.03688  0.0921132150901
 H1 0.971181 0.263765 0.99482  0.0921132150901
 H1 0.765851 0.155113 0.85267  0.0921132150901
 H1 0.674259 0.979566 0.8943  0.0921132150901
 H1 0.562762 0.827329 0.09701  0.0921132150901
 H1 0.597138 0.834585 0.19768  0.0921132150901
 H1 0.935935 0.954326 0.16702  0.0921132150901
 H1 0.902776 0.943598 0.06605  0.0921132150901
 H2 0.73299 0.868698 0.32231  0.40229009009
 C1 0.784302 0.314949 0.53364  -0.34790490991
 C2 0.843418 0.344346 0.58320  -0.0361344411599
 C2 0.88892 0.285026 0.6058  -0.0361344411599
 C3 0.877357 0.195408 0.57877  -0.12392740991
 C2 0.819808 0.165913 0.52896  -0.0361344411599
 C2 0.77364 0.224829 0.50695  -0.0361344411599
 C4 0.926655 0.132218 0.60266  0.71186509009
 C1 0.56732 0.315431 0.52531  -0.34790490991
 C2 0.534895 0.23556 0.56458  -0.0361344411599
 C2 0.428058 0.182452 0.58151  -0.0361344411599
 C3 0.349804 0.204735 0.55744  -0.12392740991
 C2 0.380521 0.284064 0.51812  -0.0361344411599
 C2 0.488271 0.34036 0.50358  -0.0361344411599
 C5 0.233645 0.141681 0.57114  0.73974134009
 C1 0.772847 0.520832 0.53163  -0.34790490991
 C2 0.856198 0.602943 0.50364  -0.0361344411599
 C2 0.906233 0.70092 0.52692  -0.0361344411599
 C3 0.874455 0.719616 0.5789  -0.12392740991
 C2 0.790687 0.638986 0.6071  -0.0361344411599
 C2 0.740362 0.541018 0.58356  -0.0361344411599
 C4 0.929435 0.824691 0.6038  0.71186509009
 C1 0.730386 0.387358 0.42662  -0.34790490991
 C2 0.645374 0.355873 0.38843  -0.0361344411599
 C2 0.663964 0.359404 0.33158  -0.0361344411599
 C3 0.769154 0.395936 0.31154  -0.12392740991
 C2 0.854909 0.426864 0.34907  -0.0361344411599
 C2 0.835358 0.421447 0.40568  -0.0361344411599
 C5 0.792827 0.402659 0.25151  0.73974134009
 C1 0.215851 0.184676 0.03354  -0.34790490991
 C2 0.156831 0.155323 0.08314  -0.0361344411599
 C2 0.1113 0.214616 0.10574  -0.0361344411599
 C3 0.122718 0.304165 0.07862  -0.12392740991
 C2 0.180154 0.333607 0.0287  -0.0361344411599
 C2 0.226344 0.274709 0.0067  -0.0361344411599
 C4 0.073461 0.367358 0.10252  0.71186509009
 C1 0.432885 0.184246 0.02530  -0.34790490991
 C2 0.465238 0.264036 0.06459  -0.0361344411599
 C2 0.572055 0.317145 0.08154  -0.0361344411599
 C3 0.650361 0.294947 0.05748  -0.12392740991
 C2 0.619716 0.2157 0.01814  -0.0361344411599
 C2 0.511984 0.159396 0.00358  -0.0361344411599
 C5 0.766507 0.358029 0.07118  0.73974134009
 C1 0.227404 0.978793 0.03165  -0.34790490991
 C2 0.143881 0.896739 0.00375  -0.0361344411599
 C2 0.093878 0.798753 0.02706  -0.0361344411599
 C3 0.125856 0.779976 0.07901  -0.12392740991
 C2 0.209796 0.860542 0.10713  -0.0361344411599
 C2 0.260075 0.958532 0.08353  -0.0361344411599
 C4 0.070925 0.67486 0.1039  0.71186509009
 C1 0.269892 0.112281 0.92658  -0.34790490991
 C2 0.354903 0.143763 0.88839  -0.0361344411599
 C2 0.336311 0.140216 0.8315  -0.0361344411599
 C3 0.231116 0.103655 0.81150  -0.12392740991
 C2 0.145362 0.072705 0.84904  -0.0361344411599
 C2 0.164916 0.07814 0.90565  -0.0361344411599
 C5 0.207407 0.096974 0.75148  0.73974134009
 C1 0.215768 0.685069 0.46645  -0.34790490991
 C2 0.156666 0.655672 0.41688  -0.0361344411599
 C2 0.111162 0.714986 0.39424  -0.0361344411599
 C3 0.12271 0.804602 0.42130  -0.12392740991
 C2 0.180243 0.834096 0.47111  -0.0361344411599
 C2 0.226413 0.775186 0.49313  -0.0361344411599
 C4 0.073412 0.867783 0.39740  0.71186509009
 C1 0.43275 0.68458 0.47477  -0.34790490991
 C2 0.465182 0.764451 0.43550  -0.0361344411599
 C2 0.572022 0.817558 0.41857  -0.0361344411599
 C3 0.650271 0.795274 0.44265  -0.12392740991
 C2 0.619546 0.715942 0.48197  -0.0361344411599
 C2 0.511793 0.659648 0.49651  -0.0361344411599
 C5 0.766436 0.858325 0.42896  0.73974134009
 C1 0.227221 0.479181 0.46846  -0.34790490991
 C2 0.143872 0.397068 0.4964  -0.0361344411599
 C2 0.093834 0.299091 0.47316  -0.0361344411599
 C3 0.125595 0.280401 0.42115  -0.12392740991
 C2 0.209368 0.36103 0.39294  -0.0361344411599
 C2 0.259697 0.458997 0.41652  -0.0361344411599
 C4 0.070617 0.175324 0.3962  0.71186509009
 C1 0.269702 0.612666 0.57347  -0.34790490991
 C2 0.354707 0.64413 0.61166  -0.0361344411599
 C2 0.336108 0.640585 0.6685  -0.0361344411599
 C3 0.230914 0.604058 0.68855  -0.12392740991
 C2 0.145169 0.573154 0.65101  -0.0361344411599
 C2 0.16473 0.578583 0.59440  -0.0361344411599
 C5 0.207205 0.597306 0.74857  0.73974134009
 C1 0.784219 0.815272 0.96655  -0.34790490991
 C2 0.843231 0.844625 0.91695  -0.0361344411599
 C2 0.888771 0.78534 0.89434  -0.0361344411599
 C3 0.877365 0.695795 0.92147  -0.12392740991
 C2 0.819934 0.666351 0.97132  -0.0361344411599
 C2 0.773739 0.725244 0.99331  -0.0361344411599
 C4 0.926627 0.632613 0.89755  0.71186509009
 C1 0.567188 0.815716 0.97478  -0.34790490991
 C2 0.53482 0.735921 0.93550  -0.0361344411599
 C2 0.427996 0.682813 0.91856  -0.0361344411599
 C3 0.349704 0.705022 0.9426  -0.12392740991
 C2 0.380366 0.784277 0.98196  -0.0361344411599
 C2 0.488102 0.840579 0.99651  -0.0361344411599
 C5 0.23355 0.641944 0.92894  0.73974134009
 C1 0.772678 0.021161 0.96844  -0.34790490991
 C2 0.85618 0.103214 0.99635  -0.0361344411599
 C2 0.906187 0.201206 0.97306  -0.0361344411599
 C3 0.874229 0.21999 0.92110  -0.12392740991
 C2 0.79031 0.139425 0.8929  -0.0361344411599
 C2 0.740025 0.041431 0.91656  -0.0361344411599
 C4 0.92917 0.325108 0.89621  0.71186509009
 C1 0.730159 0.887657 0.07350  -0.34790490991
 C2 0.645152 0.856195 0.11170  -0.0361344411599
 C2 0.663748 0.859752 0.16855  -0.0361344411599
 C3 0.768943 0.896298 0.18858  -0.12392740991
 C2 0.854692 0.927225 0.15104  -0.0361344411599
 C2 0.835133 0.921783 0.09443  -0.0361344411599
 C5 0.792681 0.903006 0.24860  0.73974134009
 O1 0.961136 0.147225 0.65203  -0.68635190991
 O2 0.93292 0.062426 0.57193  -0.80001490991
 O1 0.16574 0.122817 0.53301  -0.68635190991
 O1 0.207234 0.107875 0.62119  -0.68635190991
 O1 0.905708 0.841015 0.65227  -0.68635190991
 O2 0.0 0.89808 0.57473  -0.80001490991
 O1 0.887226 0.445205 0.23395  -0.68635190991
 O3 0.708019 0.361019 0.21857  -0.51562990991
 O1 0.0 0.352205 0.15190  -0.68635190991
 O2 0.067264 0.43728 0.07185  -0.80001490991
 O1 0.834424 0.377048 0.03304  -0.68635190991
 O1 0.792909 0.391698 0.12124  -0.68635190991
 O1 0.0949 0.658367 0.15226  -0.68635190991
 O2 0.998017 0.601587 0.07486  -0.80001490991
 O1 0.112991 0.054524 0.73395  -0.68635190991
 O3 0.292189 0.138582 0.71851  -0.51562990991
 O1 0.0 0.852766 0.34803  -0.68635190991
 O2 0.067134 0.937584 0.42812  -0.80001490991
 O1 0.834319 0.877188 0.46710  -0.68635190991
 O1 0.79287 0.892127 0.37891  -0.68635190991
 O1 0.094328 0.159008 0.34781  -0.68635190991
 O2 0.99797 0.101928 0.42536  -0.80001490991
 O1 0.112787 0.554762 0.76611  -0.68635190991
 O3 0.291987 0.638914 0.78154  -0.51562990991
 O1 0.961177 0.647807 0.84819  -0.68635190991
 O2 0.932791 0.562651 0.92821  -0.80001490991
 O1 0.165657 0.622943 0.9670  -0.68635190991
 O1 0.207126 0.608265 0.87888  -0.68635190991
 O1 0.905228 0.341597 0.84785  -0.68635190991
 O2 0.0 0.398383 0.92526  -0.80001490991
 O1 0.887116 0.945429 0.26611  -0.68635190991
 O3 0.707923 0.86147 0.28159  -0.51562990991
