#======================================================================

# CRYSTAL DATA

#----------------------------------------------------------------------

data_VESTA_phase_1


_pd_phase_name                         MOF
_cell_length_a                         14.07400
_cell_length_b                         16.94300
_cell_length_c                         16.94300
_cell_angle_alpha                      111.85400
_cell_angle_beta                       91.01800
_cell_angle_gamma                      91.02100
_symmetry_space_group_name_H-M         "P 1"
_symmetry_Int_Tables_number            1

loop_
_symmetry_equiv_pos_as_xyz
   "x, y, z"

loop_
   _atom_site_label
   _atom_site_fract_x
   _atom_site_fract_y
   _atom_site_fract_z
 _atom_site_charge
 Cd1 0.375001 0.4638 0.0361  0.688420263158
 Cd1 0.375004 0.463795 0.53618  0.688420263158
 Cd1 0.374996 0.963793 0.03619  0.688420263158
 Cd1 0.374998 0.963788 0.53618  0.688420263158
 Cd1 0.874988 0.4638 0.03619  0.688420263158
 Cd1 0.874988 0.463797 0.53618  0.688420263158
 Cd1 0.874985 0.963794 0.03619  0.688420263158
 Cd1 0.874985 0.96379 0.53618  0.688420263158
 Cd1 0.125019 0.03619 0.46378  0.688420263158
 Cd1 0.125019 0.036186 0.96377  0.688420263158
 Cd1 0.125014 0.536183 0.46378  0.688420263158
 Cd1 0.125014 0.536179 0.96377  0.688420263158
 Cd1 0.625004 0.036191 0.46378  0.688420263158
 Cd1 0.625006 0.036186 0.96377  0.688420263158
 Cd1 0.625 0.536185 0.46378  0.688420263158
 Cd1 0.625003 0.53618 0.96377  0.688420263158
 H1 0.032245 0.00615 0.14278  0.240610263158
 H1 0.032244 0.006148 0.64277  0.240610263158
 H1 0.032243 0.506145 0.14278  0.240610263158
 H1 0.032242 0.506143 0.64277  0.240610263158
 H1 0.532231 0.006136 0.14278  0.240610263158
 H1 0.532235 0.006135 0.64277  0.240610263158
 H1 0.532225 0.50613 0.14278  0.240610263158
 H1 0.532229 0.506129 0.64277  0.240610263158
 H2 0.432214 0.118303 0.21967  0.0676377631579
 H2 0.432217 0.118302 0.71966  0.0676377631579
 H2 0.432209 0.618296 0.21967  0.0676377631579
 H2 0.432212 0.618295 0.71966  0.0676377631579
 H2 0.932179 0.1183 0.21968  0.0676377631579
 H2 0.932182 0.118297 0.71967  0.0676377631579
 H2 0.932173 0.618295 0.21968  0.0676377631579
 H2 0.932176 0.618292 0.71967  0.0676377631579
 H2 0.370661 0.047766 0.25807  0.0676377631579
 H2 0.370661 0.047766 0.75806  0.0676377631579
 H2 0.370658 0.547759 0.25807  0.0676377631579
 H2 0.370658 0.547759 0.75806  0.0676377631579
 H2 0.870637 0.047749 0.25807  0.0676377631579
 H2 0.870641 0.047748 0.7580  0.0676377631579
 H2 0.87063 0.547744 0.25807  0.0676377631579
 H2 0.870635 0.547742 0.7580  0.0676377631579
 H2 0.418992 0.39546 0.20626  0.0676377631579
 H2 0.418993 0.395456 0.70625  0.0676377631579
 H2 0.418986 0.895453 0.20626  0.0676377631579
 H2 0.418987 0.895449 0.70625  0.0676377631579
 H2 0.918992 0.395446 0.2062  0.0676377631579
 H2 0.918996 0.395446 0.7062  0.0676377631579
 H2 0.918988 0.895441 0.20625  0.0676377631579
 H2 0.918992 0.895441 0.70624  0.0676377631579
 H2 0.01139 0.363228 0.1311  0.0676377631579
 H2 0.011392 0.363228 0.63118  0.0676377631579
 H2 0.011385 0.863222 0.13119  0.0676377631579
 H2 0.011387 0.863222 0.63118  0.0676377631579
 H2 0.511351 0.363221 0.131  0.0676377631579
 H2 0.511354 0.363219 0.63118  0.0676377631579
 H2 0.511346 0.863214 0.13119  0.0676377631579
 H2 0.511349 0.863212 0.63118  0.0676377631579
 H1 0.217775 0.3572 0.49384  0.240610263158
 H1 0.217779 0.357197 0.99383  0.240610263158
 H1 0.217768 0.857193 0.49384  0.240610263158
 H1 0.217772 0.85719 0.99383  0.240610263158
 H1 0.717767 0.357198 0.49384  0.240610263158
 H1 0.717766 0.357194 0.9938  0.240610263158
 H1 0.717764 0.857191 0.49384  0.240610263158
 H1 0.717764 0.857188 0.99384  0.240610263158
 H2 0.317794 0.280316 0.38167  0.0676377631579
 H2 0.317794 0.280313 0.8816  0.0676377631579
 H2 0.31779 0.780311 0.38167  0.0676377631579
 H2 0.317789 0.780307 0.8816  0.0676377631579
 H2 0.817791 0.280316 0.3816  0.0676377631579
 H2 0.817791 0.280315 0.88167  0.0676377631579
 H2 0.817786 0.780308 0.38168  0.0676377631579
 H2 0.817786 0.780307 0.88167  0.0676377631579
 H2 0.379352 0.241923 0.45220  0.0676377631579
 H2 0.379351 0.241919 0.952  0.0676377631579
 H2 0.379349 0.741915 0.45220  0.0676377631579
 H2 0.379348 0.741912 0.952  0.0676377631579
 H2 0.879346 0.241923 0.45221  0.0676377631579
 H2 0.879349 0.241919 0.95220  0.0676377631579
 H2 0.879339 0.741917 0.45221  0.0676377631579
 H2 0.879343 0.741913 0.95220  0.0676377631579
 H2 0.331006 0.293728 0.10452  0.0676377631579
 H2 0.331008 0.293725 0.60451  0.0676377631579
 H2 0.331003 0.793721 0.10452  0.0676377631579
 H2 0.331005 0.793719 0.60451  0.0676377631579
 H2 0.831005 0.293728 0.10452  0.0676377631579
 H2 0.831003 0.293724 0.60451  0.0676377631579
 H2 0.830999 0.793721 0.10452  0.0676377631579
 H2 0.830998 0.793717 0.60451  0.0676377631579
 H2 0.23864 0.368779 0.13676  0.0676377631579
 H2 0.23864 0.368778 0.63675  0.0676377631579
 H2 0.238635 0.868773 0.13676  0.0676377631579
 H2 0.238635 0.868772 0.63675  0.0676377631579
 H2 0.738636 0.368781 0.13676  0.0676377631579
 H2 0.738636 0.368777 0.63675  0.0676377631579
 H2 0.738631 0.868773 0.13676  0.0676377631579
 H2 0.738632 0.868769 0.63675  0.0676377631579
 H1 0.467772 0.49385 0.35719  0.240610263158
 H1 0.467776 0.493849 0.85718  0.240610263158
 H1 0.46777 0.993845 0.35719  0.240610263158
 H1 0.467774 0.993844 0.85718  0.240610263158
 H1 0.967763 0.493837 0.35718  0.240610263158
 H1 0.967762 0.493835 0.85717  0.240610263158
 H1 0.967757 0.993831 0.35718  0.240610263158
 H1 0.967756 0.993829 0.85717  0.240610263158
 H2 0.067826 0.381688 0.28028  0.0676377631579
 H2 0.067829 0.381686 0.78027  0.0676377631579
 H2 0.067821 0.881682 0.28028  0.0676377631579
 H2 0.067824 0.881679 0.7802  0.0676377631579
 H2 0.567791 0.381684 0.28029  0.0676377631579
 H2 0.567794 0.381683 0.78028  0.0676377631579
 H2 0.567785 0.881678 0.28029  0.0676377631579
 H2 0.567788 0.881678 0.78028  0.0676377631579
 H2 0.129366 0.452238 0.24190  0.0676377631579
 H2 0.12937 0.452237 0.74189  0.0676377631579
 H2 0.129363 0.952231 0.24190  0.0676377631579
 H2 0.129367 0.95223 0.74189  0.0676377631579
 H2 0.629347 0.45222 0.241  0.0676377631579
 H2 0.629346 0.45222 0.7418  0.0676377631579
 H2 0.62934 0.952214 0.241  0.0676377631579
 H2 0.62934 0.952214 0.74189  0.0676377631579
 H2 0.081011 0.10454 0.29372  0.0676377631579
 H2 0.081015 0.10454 0.79371  0.0676377631579
 H2 0.081005 0.604533 0.29372  0.0676377631579
 H2 0.081009 0.604533 0.79371  0.0676377631579
 H2 0.581014 0.10453 0.29371  0.0676377631579
 H2 0.581015 0.104526 0.793  0.0676377631579
 H2 0.58101 0.604526 0.29371  0.0676377631579
 H2 0.581011 0.604522 0.79370  0.0676377631579
 H2 0.488653 0.136767 0.36877  0.0676377631579
 H2 0.488656 0.136765 0.86876  0.0676377631579
 H2 0.488647 0.636762 0.36877  0.0676377631579
 H2 0.48865 0.636759 0.86876  0.0676377631579
 H2 0.988615 0.136758 0.36878  0.0676377631579
 H2 0.988617 0.136758 0.86877  0.0676377631579
 H2 0.98861 0.636751 0.36878  0.0676377631579
 H2 0.988612 0.636751 0.86877  0.0676377631579
 H1 0.282241 0.142792 0.00612  0.240610263158
 H1 0.28224 0.142789 0.50611  0.240610263158
 H1 0.282235 0.642785 0.00612  0.240610263158
 H1 0.282234 0.642782 0.50611  0.240610263158
 H1 0.782229 0.14279 0.00612  0.240610263158
 H1 0.782233 0.142787 0.50611  0.240610263158
 H1 0.782226 0.642783 0.00612  0.240610263158
 H1 0.78223 0.64278 0.50611  0.240610263158
 H2 0.182216 0.219672 0.11829  0.0676377631579
 H2 0.182216 0.219671 0.61828  0.0676377631579
 H2 0.182212 0.719666 0.11829  0.0676377631579
 H2 0.182212 0.719665 0.61828  0.0676377631579
 H2 0.682213 0.219674 0.11829  0.0676377631579
 H2 0.682212 0.21967 0.61828  0.0676377631579
 H2 0.682208 0.719666 0.11829  0.0676377631579
 H2 0.682208 0.719662 0.61828  0.0676377631579
 H2 0.120658 0.258067 0.04775  0.0676377631579
 H2 0.120661 0.258062 0.54774  0.0676377631579
 H2 0.120655 0.758059 0.04775  0.0676377631579
 H2 0.120659 0.758055 0.54774  0.0676377631579
 H2 0.620657 0.258067 0.04776  0.0676377631579
 H2 0.620655 0.258063 0.54775  0.0676377631579
 H2 0.62065 0.758061 0.04776  0.0676377631579
 H2 0.620649 0.758057 0.54775  0.0676377631579
 H2 0.169003 0.206262 0.39544  0.0676377631579
 H2 0.169002 0.206259 0.89543  0.0676377631579
 H2 0.169 0.706256 0.39544  0.0676377631579
 H2 0.168999 0.706253 0.8954  0.0676377631579
 H2 0.668999 0.206261 0.39544  0.0676377631579
 H2 0.669001 0.206259 0.89544  0.0676377631579
 H2 0.668993 0.706254 0.39544  0.0676377631579
 H2 0.668995 0.706252 0.89544  0.0676377631579
 H2 0.26137 0.13121 0.36320  0.0676377631579
 H2 0.261371 0.131205 0.86319  0.0676377631579
 H2 0.261366 0.631204 0.36320  0.0676377631579
 H2 0.261366 0.6312 0.86319  0.0676377631579
 H2 0.761367 0.131209 0.36321  0.0676377631579
 H2 0.761366 0.131208 0.86320  0.0676377631579
 H2 0.761363 0.631201 0.3632  0.0676377631579
 H2 0.761362 0.6312 0.86320  0.0676377631579
 C1 0.440503 0.063616 0.23895  0.00356901315789
 C1 0.440503 0.063616 0.73894  0.00356901315789
 C1 0.440501 0.563609 0.23895  0.00356901315789
 C1 0.4405 0.563609 0.73894  0.00356901315789
 C1 0.940477 0.063611 0.23895  0.00356901315789
 C1 0.940482 0.063609 0.73894  0.00356901315789
 C1 0.940469 0.563606 0.23895  0.00356901315789
 C1 0.940475 0.563604 0.73894  0.00356901315789
 C1 0.486952 0.4155 0.18757  0.00356901315789
 C1 0.486952 0.415496 0.68756  0.00356901315789
 C1 0.486945 0.915492 0.18757  0.00356901315789
 C1 0.486946 0.915487 0.68756  0.00356901315789
 C1 0.986947 0.415496 0.18756  0.00356901315789
 C1 0.986952 0.415497 0.68755  0.00356901315789
 C1 0.986944 0.915492 0.18756  0.00356901315789
 C1 0.986949 0.915493 0.68755  0.00356901315789
 C1 0.309507 0.261038 0.43636  0.00356901315789
 C1 0.309505 0.261035 0.93635  0.00356901315789
 C1 0.309505 0.761031 0.43636  0.00356901315789
 C1 0.309502 0.761028 0.93635  0.00356901315789
 C1 0.809501 0.261038 0.43636  0.00356901315789
 C1 0.809505 0.261035 0.93635  0.00356901315789
 C1 0.809494 0.761031 0.43636  0.00356901315789
 C1 0.809498 0.761028 0.93635  0.00356901315789
 C1 0.263046 0.31241 0.0844  0.00356901315789
 C1 0.263048 0.312408 0.58447  0.00356901315789
 C1 0.263043 0.812404 0.08448  0.00356901315789
 C1 0.263045 0.812402 0.58447  0.00356901315789
 C1 0.763044 0.312412 0.08448  0.00356901315789
 C1 0.763043 0.312407 0.58447  0.00356901315789
 C1 0.763038 0.812404 0.08448  0.00356901315789
 C1 0.763037 0.812399 0.58447  0.00356901315789
 C1 0.059525 0.436377 0.26101  0.00356901315789
 C1 0.05953 0.436374 0.76100  0.00356901315789
 C1 0.059523 0.93637 0.26101  0.00356901315789
 C1 0.059528 0.936368 0.76100  0.00356901315789
 C1 0.559505 0.43637 0.26102  0.00356901315789
 C1 0.559504 0.43637 0.76101  0.00356901315789
 C1 0.559497 0.936365 0.26102  0.00356901315789
 C1 0.559496 0.936365 0.76101  0.00356901315789
 C1 0.013055 0.084488 0.31240  0.00356901315789
 C1 0.013059 0.084489 0.81239  0.00356901315789
 C1 0.013049 0.58448 0.31240  0.00356901315789
 C1 0.013053 0.584481 0.81239  0.00356901315789
 C1 0.513055 0.08449 0.31240  0.00356901315789
 C1 0.513055 0.084486 0.81238  0.00356901315789
 C1 0.513051 0.584486 0.31240  0.00356901315789
 C1 0.513052 0.584482 0.81239  0.00356901315789
 C1 0.190502 0.238951 0.06360  0.00356901315789
 C1 0.190506 0.238948 0.56359  0.00356901315789
 C1 0.1905 0.738945 0.06360  0.00356901315789
 C1 0.190504 0.738942 0.56359  0.00356901315789
 C1 0.690503 0.238952 0.06360  0.00356901315789
 C1 0.6905 0.238948 0.56360  0.00356901315789
 C1 0.690496 0.738945 0.06360  0.00356901315789
 C1 0.690493 0.738941 0.56360  0.00356901315789
 C1 0.236964 0.187579 0.41548  0.00356901315789
 C1 0.236963 0.187575 0.91547  0.00356901315789
 C1 0.236961 0.687574 0.41548  0.00356901315789
 C1 0.23696 0.687569 0.91547  0.00356901315789
 C1 0.736959 0.187579 0.41548  0.00356901315789
 C1 0.736961 0.187577 0.91548  0.00356901315789
 C1 0.736953 0.687571 0.41548  0.00356901315789
 C1 0.736955 0.687569 0.91548  0.00356901315789
 Br1 0.211764 0.04754 0.12344  -0.477669736842
 Br1 0.211765 0.047537 0.6234  -0.477669736842
 Br1 0.21176 0.547534 0.12344  -0.477669736842
 Br1 0.211761 0.547531 0.6234  -0.477669736842
 Br1 0.711749 0.047538 0.12344  -0.477669736842
 Br1 0.711751 0.047534 0.6234  -0.477669736842
 Br1 0.711743 0.547533 0.12344  -0.477669736842
 Br1 0.711746 0.547528 0.6234  -0.477669736842
 Br1 0.038262 0.376532 0.45244  -0.477669736842
 Br1 0.038264 0.376528 0.95243  -0.477669736842
 Br1 0.038257 0.876526 0.45244  -0.477669736842
 Br1 0.038259 0.876522 0.95243  -0.477669736842
 Br1 0.538247 0.376532 0.45244  -0.477669736842
 Br1 0.538248 0.376528 0.95243  -0.477669736842
 Br1 0.538243 0.876526 0.45244  -0.477669736842
 Br1 0.538244 0.876523 0.95243  -0.477669736842
 Br1 0.288256 0.452451 0.37652  -0.477669736842
 Br1 0.288259 0.452447 0.87651  -0.477669736842
 Br1 0.288252 0.952445 0.37652  -0.477669736842
 Br1 0.288255 0.95244 0.87651  -0.477669736842
 Br1 0.788243 0.452448 0.37652  -0.477669736842
 Br1 0.788244 0.452445 0.87651  -0.477669736842
 Br1 0.788237 0.952442 0.37652  -0.477669736842
 Br1 0.788239 0.952439 0.87651  -0.477669736842
 Br1 0.461761 0.123458 0.04752  -0.477669736842
 Br1 0.461762 0.123455 0.54751  -0.477669736842
 Br1 0.461756 0.623452 0.04752  -0.477669736842
 Br1 0.461756 0.623449 0.54751  -0.477669736842
 Br1 0.961745 0.123458 0.04753  -0.477669736842
 Br1 0.961747 0.123454 0.54752  -0.477669736842
 Br1 0.961741 0.623452 0.0475  -0.477669736842
 Br1 0.961743 0.623449 0.54752  -0.477669736842
 N1 0.468904 0.489781 0.16359  -0.384839736842
 N1 0.468911 0.48978 0.66359  -0.384839736842
 N1 0.468903 0.989775 0.163  -0.384839736842
 N1 0.46891 0.989775 0.66359  -0.384839736842
 N1 0.968899 0.489786 0.16360  -0.384839736842
 N1 0.968896 0.489783 0.66359  -0.384839736842
 N1 0.968891 0.989779 0.16360  -0.384839736842
 N1 0.968888 0.989776 0.66358  -0.384839736842
 N1 0.281097 0.336392 0.01020  -0.384839736842
 N1 0.281094 0.336384 0.51019  -0.384839736842
 N1 0.281088 0.836382 0.01020  -0.384839736842
 N1 0.281085 0.836374 0.51019  -0.384839736842
 N1 0.78108 0.336385 0.01020  -0.384839736842
 N1 0.781087 0.336384 0.51019  -0.384839736842
 N1 0.78108 0.836382 0.01020  -0.384839736842
 N1 0.781086 0.836381 0.51019  -0.384839736842
 N1 0.031111 0.010203 0.33637  -0.384839736842
 N1 0.031108 0.0102 0.83635  -0.384839736842
 N1 0.031111 0.510198 0.33637  -0.384839736842
 N1 0.031108 0.510195 0.83636  -0.384839736842
 N1 0.531097 0.010206 0.33637  -0.384839736842
 N1 0.531104 0.010206 0.83636  -0.384839736842
 N1 0.531088 0.510198 0.33636  -0.384839736842
 N1 0.531095 0.510198 0.83636  -0.384839736842
 N1 0.21892 0.163602 0.48976  -0.384839736842
 N1 0.218927 0.163601 0.9897  -0.384839736842
 N1 0.218911 0.663592 0.48976  -0.384839736842
 N1 0.218918 0.663591 0.98975  -0.384839736842
 N1 0.718914 0.163602 0.4897  -0.384839736842
 N1 0.718911 0.163594 0.98975  -0.384839736842
 N1 0.718913 0.663599 0.48977  -0.384839736842
 N1 0.71891 0.66359 0.98976  -0.384839736842
