#======================================================================

# CRYSTAL DATA

#----------------------------------------------------------------------

data_VESTA_phase_1


_pd_phase_name                         MOF
_cell_length_a                         21.64400
_cell_length_b                         13.83000
_cell_length_c                         13.69000
_cell_angle_alpha                      90.48700
_cell_angle_beta                       89.96700
_cell_angle_gamma                      90.27000
_symmetry_space_group_name_H-M         "P 1"
_symmetry_Int_Tables_number            1

loop_
_symmetry_equiv_pos_as_xyz
   "x, y, z"

loop_
   _atom_site_label
   _atom_site_fract_x
   _atom_site_fract_y
   _atom_site_fract_z
 _atom_site_charge
 Cu1 0.370807 0.341407 0.72042  0.284952739726
 Cu1 0.871363 0.341641 0.72027  0.284952739726
 Cu1 0.37062 0.158029 0.77953  0.284952739726
 Cu1 0.86986 0.157965 0.77962  0.284952739726
 Cu1 0.120223 0.279165 0.84213  0.284952739726
 Cu1 0.621004 0.279229 0.84203  0.284952739726
 Cu1 0.120271 0.22066 0.65449  0.284952739726
 Cu1 0.621105 0.220784 0.65446  0.284952739726
 Cu1 0.128712 0.658384 0.2796  0.284952739726
 Cu1 0.629216 0.658614 0.27953  0.284952739726
 Cu1 0.130168 0.84206 0.22033  0.284952739726
 Cu1 0.629407 0.841992 0.22043  0.284952739726
 Cu1 0.379029 0.720792 0.15792  0.284952739726
 Cu1 0.879806 0.720854 0.15784  0.284952739726
 Cu1 0.378926 0.779239 0.34550  0.284952739726
 Cu1 0.879759 0.779358 0.34547  0.284952739726
 H1 0.257455 0.470485 0.76930  0.0846560730594
 H1 0.75775 0.470857 0.76952  0.0846560730594
 H1 0.251458 0.679796 0.53601  0.0846560730594
 H1 0.751062 0.679563 0.53573  0.0846560730594
 H1 0.342742 0.598325 0.46363  0.0846560730594
 H1 0.842058 0.597697 0.46277  0.0846560730594
 H1 0.388304 0.455117 0.54739  0.0846560730594
 H1 0.88781 0.454673 0.54649  0.0846560730594
 H1 0.2012 0.756864 0.64480  0.0846560730594
 H1 0.70045 0.756865 0.64433  0.0846560730594
 H1 0.140215 0.676827 0.60792  0.0846560730594
 H1 0.639903 0.67571 0.60818  0.0846560730594
 H1 0.258934 0.023729 0.72944  0.0846560730594
 H1 0.757871 0.024125 0.72968  0.0846560730594
 H1 0.252184 0.817186 0.96527  0.0846560730594
 H1 0.751343 0.817177 0.96515  0.0846560730594
 H1 0.34157 0.903635 0.0395  0.0846560730594
 H1 0.840861 0.903369 0.03929  0.0846560730594
 H1 0.38649 0.04774 0.95530  0.0846560730594
 H1 0.885759 0.047569 0.95514  0.0846560730594
 H1 0.201583 0.736372 0.85552  0.0846560730594
 H1 0.701066 0.736494 0.85535  0.0846560730594
 H1 0.142074 0.818178 0.89263  0.0846560730594
 H1 0.641246 0.817677 0.89260  0.0846560730594
 H1 0.006188 0.229345 0.97248  0.0846560730594
 H1 0.507021 0.229215 0.97295  0.0846560730594
 H1 0.99685 0.464201 0.18319  0.0846560730594
 H1 0.497445 0.46466 0.1829  0.0846560730594
 H1 0.088541 0.536146 0.10220  0.0846560730594
 H1 0.588912 0.536786 0.10150  0.0846560730594
 H1 0.135891 0.451482 0.95831  0.0846560730594
 H1 0.636266 0.451914 0.95775  0.0846560730594
 H1 0.446535 0.358177 0.26093  0.0846560730594
 H1 0.946101 0.357551 0.26078  0.0846560730594
 H1 0.387162 0.392234 0.17734  0.0846560730594
 H1 0.886592 0.392111 0.1776  0.0846560730594
 H1 0.007312 0.272726 0.52517  0.0846560730594
 H1 0.508308 0.273075 0.52499  0.0846560730594
 H1 0.994041 0.038598 0.31411  0.0846560730594
 H1 0.494414 0.038609 0.31442  0.0846560730594
 H1 0.084892 0.964548 0.39416  0.0846560730594
 H1 0.585035 0.964111 0.39466  0.0846560730594
 H1 0.133733 0.047757 0.53798  0.0846560730594
 H1 0.634072 0.047252 0.53835  0.0846560730594
 H1 0.445159 0.146761 0.2374  0.0846560730594
 H1 0.944696 0.146581 0.23721  0.0846560730594
 H1 0.385501 0.113418 0.3212  0.0846560730594
 H1 0.884956 0.112897 0.3207  0.0846560730594
 H1 0.242334 0.529176 0.23046  0.0846560730594
 H1 0.742565 0.529533 0.23065  0.0846560730594
 H1 0.248993 0.320455 0.46423  0.0846560730594
 H1 0.748586 0.320253 0.46396  0.0846560730594
 H1 0.158001 0.402336 0.53719  0.0846560730594
 H1 0.65731 0.401737 0.53636  0.0846560730594
 H1 0.112264 0.545372 0.45347  0.0846560730594
 H1 0.61174 0.544935 0.45259  0.0846560730594
 H1 0.299595 0.243146 0.35563  0.0846560730594
 H1 0.798829 0.243165 0.35517  0.0846560730594
 H1 0.360152 0.324279 0.39178  0.0846560730594
 H1 0.859813 0.323209 0.3920  0.0846560730594
 H1 0.242155 0.975902 0.27028  0.0846560730594
 H1 0.741089 0.976303 0.27052  0.0846560730594
 H1 0.24869 0.182853 0.03481  0.0846560730594
 H1 0.747842 0.182841 0.03469  0.0846560730594
 H1 0.159172 0.096666 0.96067  0.0846560730594
 H1 0.658458 0.096387 0.96042  0.0846560730594
 H1 0.114272 0.952465 0.04481  0.0846560730594
 H1 0.613539 0.952282 0.04465  0.0846560730594
 H1 0.298983 0.263528 0.14460  0.0846560730594
 H1 0.798447 0.263656 0.14443  0.0846560730594
 H1 0.358792 0.182323 0.1073  0.0846560730594
 H1 0.857955 0.181843 0.10733  0.0846560730594
 H1 0.493014 0.770807 0.02699  0.0846560730594
 H1 0.993836 0.770685 0.02748  0.0846560730594
 H1 0.502598 0.535344 0.81699  0.0846560730594
 H1 0.0 0.535814 0.81678  0.0846560730594
 H1 0.411139 0.463211 0.89848  0.0846560730594
 H1 0.911495 0.463866 0.89777  0.0846560730594
 H1 0.363785 0.548088 0.04223  0.0846560730594
 H1 0.86414 0.548537 0.04166  0.0846560730594
 H1 0.053932 0.642463 0.73919  0.0846560730594
 H1 0.553519 0.64181 0.73903  0.0846560730594
 H1 0.113442 0.607917 0.82230  0.0846560730594
 H1 0.612885 0.607782 0.8226  0.0846560730594
 H1 0.491723 0.726932 0.47498  0.0846560730594
 H1 0.992705 0.72729 0.47481  0.0846560730594
 H1 0.505628 0.961398 0.68555  0.0846560730594
 H1 0.0 0.961428 0.68585  0.0846560730594
 H1 0.415013 0.035908 0.60531  0.0846560730594
 H1 0.915138 0.035487 0.60579  0.0846560730594
 H1 0.365973 0.952772 0.46161  0.0846560730594
 H1 0.8663 0.952277 0.46197  0.0846560730594
 H1 0.055334 0.853449 0.76276  0.0846560730594
 H1 0.554896 0.853255 0.76252  0.0846560730594
 H1 0.115066 0.887123 0.67918  0.0846560730594
 H1 0.614547 0.886575 0.67865  0.0846560730594
 C1 0.262519 0.292931 0.86958  0.301102739726
 C1 0.763108 0.2935 0.86960  0.301102739726
 C2 0.275827 0.500509 0.70181  0.050092739726
 C2 0.775929 0.500665 0.70180  0.050092739726
 C3 0.248369 0.582358 0.66052  0.209252739726
 C3 0.748367 0.582449 0.66050  0.209252739726
 C4 0.271679 0.618081 0.57260  -0.125617260274
 C4 0.771371 0.617883 0.57227  -0.125617260274
 C4 0.322701 0.571868 0.53140  -0.125617260274
 C4 0.822216 0.571455 0.5307  -0.125617260274
 C2 0.348116 0.492278 0.57714  0.050092739726
 C2 0.847756 0.491967 0.57653  0.050092739726
 C5 0.168171 0.70184 0.67027  0.072372739726
 C5 0.667802 0.701511 0.6702  0.072372739726
 C1 0.262598 0.205776 0.62932  0.301102739726
 C1 0.76324 0.20632 0.62879  0.301102739726
 C2 0.2767 0.995442 0.79795  0.050092739726
 C2 0.775716 0.995692 0.79808  0.050092739726
 C3 0.249583 0.913042 0.83960  0.209252739726
 C3 0.748639 0.913217 0.83964  0.209252739726
 C4 0.272147 0.879421 0.92866  -0.125617260274
 C4 0.771298 0.87944 0.92859  -0.125617260274
 C4 0.322084 0.92837 0.9708  -0.125617260274
 C4 0.821305 0.928265 0.97067  -0.125617260274
 C2 0.347166 0.008435 0.92476  0.050092739726
 C2 0.84636 0.008386 0.92468  0.050092739726
 C5 0.169348 0.792084 0.83008  0.072372739726
 C5 0.66862 0.791939 0.8300  0.072372739726
 C1 0.012199 0.131265 0.79169  0.301102739726
 C1 0.512901 0.13155 0.7914  0.301102739726
 C2 0.023912 0.297056 0.00302  0.050092739726
 C2 0.524644 0.297101 0.00324  0.050092739726
 C3 0.995462 0.33897 0.08521  0.209252739726
 C3 0.496178 0.339141 0.08537  0.209252739726
 C4 0.017939 0.427203 0.12132  -0.125617260274
 C4 0.518528 0.427583 0.12115  -0.125617260274
 C4 0.069156 0.468149 0.07531  -0.125617260274
 C4 0.569614 0.468629 0.07486  -0.125617260274
 C2 0.095572 0.421844 0.99538  0.050092739726
 C2 0.596041 0.422196 0.99502  0.050092739726
 C5 0.414524 0.331303 0.20438  0.072372739726
 C5 0.913939 0.330991 0.20429  0.072372739726
 C1 0.013492 0.368762 0.70681  0.301102739726
 C1 0.513181 0.368194 0.70692  0.301102739726
 C2 0.023966 0.204696 0.49442  0.050092739726
 C2 0.524766 0.204857 0.4944  0.050092739726
 C3 0.994729 0.163592 0.41237  0.209252739726
 C3 0.495394 0.163778 0.41247  0.209252739726
 C4 0.015846 0.074984 0.37588  -0.125617260274
 C4 0.516288 0.074969 0.37614  -0.125617260274
 C4 0.066568 0.032849 0.42140  -0.125617260274
 C4 0.566892 0.032585 0.42176  -0.125617260274
 C2 0.093809 0.078377 0.50123  0.050092739726
 C2 0.594249 0.078084 0.50151  0.050092739726
 C5 0.413617 0.173959 0.29432  0.072372739726
 C5 0.913028 0.173584 0.29402  0.072372739726
 C1 0.23693 0.706538 0.13034  0.301102739726
 C1 0.737512 0.707081 0.13039  0.301102739726
 C2 0.224148 0.499368 0.29817  0.050092739726
 C2 0.724199 0.499519 0.29815  0.050092739726
 C3 0.251701 0.417576 0.33947  0.209252739726
 C3 0.751661 0.417675 0.33944  0.209252739726
 C4 0.228691 0.382142 0.42770  -0.125617260274
 C4 0.728361 0.381965 0.42737  -0.125617260274
 C4 0.177848 0.428578 0.46920  -0.125617260274
 C4 0.677344 0.428185 0.46858  -0.125617260274
 C2 0.152316 0.508072 0.42344  0.050092739726
 C2 0.651925 0.507769 0.42284  0.050092739726
 C5 0.332249 0.298493 0.32968  0.072372739726
 C5 0.831856 0.298189 0.32969  0.072372739726
 C1 0.236796 0.793733 0.37118  0.301102739726
 C1 0.737433 0.794229 0.37064  0.301102739726
 C2 0.224311 0.004336 0.20188  0.050092739726
 C2 0.723325 0.004587 0.20200  0.050092739726
 C3 0.251391 0.086811 0.16032  0.209252739726
 C3 0.750441 0.086987 0.1603  0.209252739726
 C4 0.228734 0.12059 0.07137  -0.125617260274
 C4 0.727879 0.120606 0.07129  -0.125617260274
 C4 0.178727 0.071768 0.02929  -0.125617260274
 C4 0.677944 0.071654 0.02915  -0.125617260274
 C2 0.15367 0.991646 0.07527  0.050092739726
 C2 0.652862 0.991588 0.075  0.050092739726
 C5 0.331421 0.208073 0.1699  0.072372739726
 C5 0.830679 0.207942 0.16988  0.072372739726
 C1 0.487128 0.868474 0.20854  0.301102739726
 C1 0.987829 0.868757 0.2082  0.301102739726
 C2 0.475395 0.702914 0.99671  0.050092739726
 C2 0.976115 0.70297 0.99694  0.050092739726
 C3 0.50386 0.660871 0.91458  0.209252739726
 C3 0.0 0.661052 0.91475  0.209252739726
 C4 0.481516 0.572423 0.8788  -0.125617260274
 C4 0.982094 0.572815 0.87864  -0.125617260274
 C4 0.430434 0.531372 0.92511  -0.125617260274
 C4 0.930878 0.531868 0.92466  -0.125617260274
 C2 0.404006 0.577809 0.00496  0.050092739726
 C2 0.904459 0.578175 0.00458  0.050092739726
 C5 0.086091 0.669031 0.79567  0.072372739726
 C5 0.585521 0.668702 0.79558  0.072372739726
 C1 0.486844 0.631826 0.29303  0.301102739726
 C1 0.986579 0.631278 0.2931  0.301102739726
 C2 0.475269 0.795152 0.50556  0.050092739726
 C2 0.976055 0.795325 0.50555  0.050092739726
 C3 0.504643 0.836229 0.58750  0.209252739726
 C3 0.0 0.83643 0.58760  0.209252739726
 C4 0.483754 0.92504 0.62383  -0.125617260274
 C4 0.984177 0.925043 0.62409  -0.125617260274
 C4 0.433153 0.967431 0.57821  -0.125617260274
 C4 0.933459 0.967182 0.57856  -0.125617260274
 C2 0.405794 0.921935 0.49846  0.050092739726
 C2 0.90622 0.921652 0.49873  0.050092739726
 C5 0.086996 0.826439 0.70595  0.072372739726
 C5 0.586429 0.826043 0.70563  0.072372739726
 C6 0.127658 0.747307 0.75055  -0.044037260274
 C6 0.627085 0.746958 0.75038  -0.044037260274
 C6 0.37296 0.253045 0.24958  -0.044037260274
 C6 0.872369 0.252717 0.24941  -0.044037260274
 S1 0.338831 0.296125 0.87780  -0.304167260274
 S1 0.839407 0.296465 0.87772  -0.304167260274
 S1 0.33893 0.202372 0.62201  -0.304167260274
 S1 0.839553 0.202586 0.62174  -0.304167260274
 S1 0.088499 0.123323 0.7931  -0.304167260274
 S1 0.589192 0.123374 0.79297  -0.304167260274
 S1 0.089809 0.376639 0.7042  -0.304167260274
 S1 0.589509 0.376376 0.70418  -0.304167260274
 S1 0.16063 0.703568 0.12222  -0.304167260274
 S1 0.6612 0.703896 0.12216  -0.304167260274
 S1 0.160483 0.797458 0.37821  -0.304167260274
 S1 0.6611 0.79765 0.3779  -0.304167260274
 S1 0.410838 0.876649 0.20699  -0.304167260274
 S1 0.91153 0.876703 0.20683  -0.304167260274
 S1 0.410516 0.623647 0.29578  -0.304167260274
 S1 0.910262 0.623397 0.2957  -0.304167260274
 N1 0.207895 0.290123 0.86559  -0.421157260274
 N1 0.708489 0.290756 0.86555  -0.421157260274
 N2 0.324848 0.456301 0.6613  -0.226497260274
 N2 0.8248 0.456265 0.66108  -0.226497260274
 N1 0.207976 0.208875 0.63257  -0.421157260274
 N1 0.708629 0.209666 0.6320  -0.421157260274
 N2 0.324674 0.042247 0.83928  -0.226497260274
 N2 0.823767 0.042384 0.8393  -0.226497260274
 N1 0.458294 0.135733 0.78983  -0.421157260274
 N1 0.957595 0.135228 0.79019  -0.421157260274
 N2 0.073095 0.337329 0.95888  -0.226497260274
 N2 0.573704 0.337457 0.95884  -0.226497260274
 N1 0.458554 0.36415 0.7094  -0.421157260274
 N1 0.958883 0.364714 0.70929  -0.421157260274
 N2 0.072632 0.163279 0.53807  -0.226497260274
 N2 0.573311 0.163213 0.53814  -0.226497260274
 N1 0.291548 0.709282 0.13439  -0.421157260274
 N1 0.792136 0.709882 0.13438  -0.421157260274
 N2 0.175278 0.543774 0.33888  -0.226497260274
 N2 0.675183 0.543732 0.33860  -0.226497260274
 N1 0.291407 0.790387 0.36794  -0.421157260274
 N1 0.792054 0.791118 0.36739  -0.421157260274
 N2 0.176261 0.957647 0.16062  -0.226497260274
 N2 0.675352 0.957778 0.16068  -0.226497260274
 N1 0.042433 0.864789 0.2097  -0.421157260274
 N1 0.541736 0.864291 0.21013  -0.421157260274
 N2 0.426338 0.662556 0.04112  -0.226497260274
 N2 0.926932 0.662695 0.04108  -0.226497260274
 N1 0.041188 0.635315 0.29067  -0.421157260274
 N1 0.541471 0.635868 0.29051  -0.421157260274
 N2 0.426727 0.836802 0.46182  -0.226497260274
 N2 0.927393 0.836746 0.46189  -0.226497260274
 O1 0.200332 0.621135 0.71215  -0.261737260274
 O1 0.700578 0.621531 0.71248  -0.261737260274
 O1 0.202629 0.871592 0.78711  -0.261737260274
 O1 0.701606 0.871852 0.78724  -0.261737260274
 O1 0.448235 0.287794 0.12461  -0.261737260274
 O1 0.9474 0.287731 0.12417  -0.261737260274
 O1 0.448081 0.216383 0.37409  -0.261737260274
 O1 0.947317 0.215961 0.37400  -0.261737260274
 O1 0.299486 0.378486 0.28749  -0.261737260274
 O1 0.799691 0.378887 0.28780  -0.261737260274
 O1 0.298424 0.128173 0.21272  -0.261737260274
 O1 0.797394 0.128438 0.21285  -0.261737260274
 O1 0.052627 0.712292 0.87579  -0.261737260274
 O1 0.551797 0.712224 0.87533  -0.261737260274
 O1 0.052699 0.784058 0.62598  -0.261737260274
 O1 0.551952 0.783617 0.62588  -0.261737260274
