#======================================================================

# CRYSTAL DATA

#----------------------------------------------------------------------

data_VESTA_phase_1


_pd_phase_name                         MOF
_cell_length_a                         11.70600
_cell_length_b                         20.74200
_cell_length_c                         23.39600
_cell_angle_alpha                      86.75000
_cell_angle_beta                       87.62400
_cell_angle_gamma                      83.61400
_symmetry_space_group_name_H-M         "P 1"
_symmetry_Int_Tables_number            1

loop_
_symmetry_equiv_pos_as_xyz
   "x, y, z"

loop_
   _atom_site_label
   _atom_site_fract_x
   _atom_site_fract_y
   _atom_site_fract_z
 _atom_site_charge
 La1 0.11065 0.071285 0.23551  2.246459
 La1 0.11065 0.071287 0.73552  2.246459
 La1 0.11064 0.571285 0.23552  2.246459
 La1 0.110654 0.571276 0.73552  2.246459
 La1 0.610669 0.071286 0.23551  2.246459
 La1 0.610669 0.071288 0.73552  2.246459
 La1 0.610658 0.571286 0.23552  2.246459
 La1 0.610673 0.571277 0.73552  2.246459
 La1 0.389314 0.428699 0.26448  2.246459
 La1 0.389314 0.428701 0.76448  2.246459
 La1 0.389303 0.928699 0.26448  2.246459
 La1 0.389318 0.928689 0.76448  2.246459
 La1 0.889333 0.4287 0.26448  2.246459
 La1 0.889333 0.428702 0.76448  2.246459
 La1 0.889322 0.9287 0.26448  2.246459
 La1 0.889337 0.92869 0.76448  2.246459
 P1 0.354668 0.089675 0.33058  1.544469
 P1 0.354681 0.089675 0.83059  1.544469
 P1 0.354671 0.589674 0.33058  1.544469
 P1 0.354674 0.589665 0.83059  1.544469
 P1 0.854679 0.089676 0.33058  1.544469
 P1 0.854692 0.089675 0.83059  1.544469
 P1 0.854682 0.589675 0.33058  1.544469
 P1 0.854686 0.589665 0.83059  1.544469
 P2 0.33965 0.074757 0.15734  1.512339
 P2 0.339656 0.074753 0.65734  1.512339
 P2 0.339648 0.57475 0.15734  1.512339
 P2 0.339653 0.574746 0.65734  1.512339
 P2 0.839667 0.074757 0.15734  1.512339
 P2 0.839673 0.074753 0.65734  1.512339
 P2 0.839664 0.57475 0.15734  1.512339
 P2 0.83967 0.574745 0.65734  1.512339
 P1 0.145244 0.410325 0.16940  1.544469
 P1 0.145256 0.410324 0.66941  1.544469
 P1 0.145246 0.910324 0.16940  1.544469
 P1 0.145251 0.910314 0.66941  1.544469
 P1 0.645255 0.410326 0.16940  1.544469
 P1 0.645268 0.410325 0.6694  1.544469
 P1 0.645258 0.910325 0.16940  1.544469
 P1 0.645262 0.910315 0.6694  1.544469
 P2 0.160322 0.425232 0.34266  1.512339
 P2 0.160328 0.425228 0.84266  1.512339
 P2 0.16032 0.925225 0.34266  1.512339
 P2 0.160325 0.92522 0.84266  1.512339
 P2 0.660339 0.425232 0.34266  1.512339
 P2 0.660345 0.425228 0.84266  1.512339
 P2 0.660336 0.925225 0.34266  1.512339
 P2 0.660342 0.92522 0.84266  1.512339
 H1 0.244767 0.477644 0.08415  0.250519
 H1 0.244772 0.477638 0.5841  0.250519
 H1 0.244764 0.977637 0.08415  0.250519
 H1 0.244771 0.977631 0.58415  0.250519
 H1 0.744771 0.477644 0.08415  0.250519
 H1 0.744776 0.477638 0.58415  0.250519
 H1 0.744768 0.977638 0.08415  0.250519
 H1 0.744775 0.977632 0.58415  0.250519
 H2 0.009466 0.14103 0.36555  0.116626916667
 H2 0.009469 0.141024 0.8655  0.116626916667
 H2 0.009458 0.641024 0.36555  0.116626916667
 H2 0.009473 0.641017 0.86556  0.116626916667
 H2 0.509492 0.14103 0.36555  0.116626916667
 H2 0.509493 0.141023 0.8655  0.116626916667
 H2 0.509482 0.641025 0.36555  0.116626916667
 H2 0.509497 0.641016 0.86556  0.116626916667
 H2 0.381707 0.195948 0.36228  0.116626916667
 H2 0.381706 0.195936 0.86229  0.116626916667
 H2 0.381696 0.695937 0.36228  0.116626916667
 H2 0.381712 0.695934 0.8622  0.116626916667
 H2 0.881722 0.195949 0.36228  0.116626916667
 H2 0.881723 0.195938 0.86229  0.116626916667
 H2 0.881712 0.695938 0.36228  0.116626916667
 H2 0.881728 0.695936 0.86228  0.116626916667
 H2 0.33696 0.190605 0.23679  0.116626916667
 H2 0.336971 0.190602 0.73680  0.116626916667
 H2 0.336963 0.690602 0.23679  0.116626916667
 H2 0.336968 0.690594 0.73680  0.116626916667
 H2 0.836976 0.190608 0.23679  0.116626916667
 H2 0.836987 0.190604 0.73680  0.116626916667
 H2 0.836978 0.690604 0.23679  0.116626916667
 H2 0.836984 0.690597 0.73680  0.116626916667
 H2 0.340635 0.25913 0.27908  0.116626916667
 H2 0.340631 0.259135 0.77908  0.116626916667
 H2 0.340622 0.759136 0.27907  0.116626916667
 H2 0.340641 0.759121 0.77909  0.116626916667
 H2 0.840654 0.259133 0.27908  0.116626916667
 H2 0.840652 0.259136 0.77908  0.116626916667
 H2 0.840642 0.759137 0.27907  0.116626916667
 H2 0.840661 0.759122 0.77909  0.116626916667
 H2 0.012865 0.272283 0.32991  0.116626916667
 H2 0.012882 0.272286 0.82992  0.116626916667
 H2 0.012875 0.772288 0.32991  0.116626916667
 H2 0.012874 0.772272 0.82992  0.116626916667
 H2 0.51288 0.272284 0.32991  0.116626916667
 H2 0.512898 0.272289 0.8299  0.116626916667
 H2 0.512891 0.77229 0.32991  0.116626916667
 H2 0.512889 0.772274 0.82992  0.116626916667
 H2 0.134341 0.212058 0.32378  0.116626916667
 H2 0.13435 0.212056 0.82378  0.116626916667
 H2 0.134341 0.712056 0.32378  0.116626916667
 H2 0.134349 0.712047 0.82379  0.116626916667
 H2 0.634358 0.212061 0.32378  0.116626916667
 H2 0.634367 0.21206 0.8237  0.116626916667
 H2 0.634358 0.71206 0.32378  0.116626916667
 H2 0.634366 0.71205 0.82379  0.116626916667
 H2 0.455795 0.000858 0.09969  0.116626916667
 H2 0.455799 0.00085 0.59969  0.116626916667
 H2 0.455793 0.500851 0.09969  0.116626916667
 H2 0.455795 0.500843 0.59969  0.116626916667
 H2 0.955803 0.000857 0.09969  0.116626916667
 H2 0.955808 0.000849 0.59969  0.116626916667
 H2 0.955802 0.500849 0.09969  0.116626916667
 H2 0.955804 0.500842 0.59969  0.116626916667
 H2 0.423524 0.07649 0.06069  0.116626916667
 H2 0.423534 0.076483 0.56070  0.116626916667
 H2 0.423521 0.576483 0.06069  0.116626916667
 H2 0.423529 0.576476 0.56070  0.116626916667
 H2 0.923534 0.076489 0.06069  0.116626916667
 H2 0.923543 0.076482 0.560  0.116626916667
 H2 0.92353 0.576482 0.06069  0.116626916667
 H2 0.923538 0.576475 0.560  0.116626916667
 H2 0.414345 0.497856 0.48343  0.116626916667
 H2 0.414352 0.497854 0.98343  0.116626916667
 H2 0.414341 0.997851 0.48343  0.116626916667
 H2 0.414349 0.997848 0.98343  0.116626916667
 H2 0.914353 0.497856 0.48343  0.116626916667
 H2 0.914359 0.497854 0.98343  0.116626916667
 H2 0.914349 0.997851 0.48343  0.116626916667
 H2 0.914356 0.997848 0.98343  0.116626916667
 H2 0.416324 0.429005 0.0334  0.116626916667
 H2 0.416328 0.429 0.5334  0.116626916667
 H2 0.416321 0.929 0.0334  0.116626916667
 H2 0.416327 0.928995 0.5334  0.116626916667
 H2 0.91633 0.429004 0.03344  0.116626916667
 H2 0.916333 0.429 0.5334  0.116626916667
 H2 0.916327 0.929 0.0334  0.116626916667
 H2 0.916333 0.928994 0.5334  0.116626916667
 H2 0.175522 0.091146 0.05839  0.116626916667
 H2 0.175527 0.091142 0.55840  0.116626916667
 H2 0.17552 0.591141 0.05839  0.116626916667
 H2 0.175526 0.591136 0.55839  0.116626916667
 H2 0.675527 0.091147 0.05839  0.116626916667
 H2 0.675532 0.091143 0.55840  0.116626916667
 H2 0.675525 0.591141 0.05839  0.116626916667
 H2 0.675532 0.591136 0.558  0.116626916667
 H2 0.275383 0.092782 0.4982  0.116626916667
 H2 0.275387 0.092781 0.99828  0.116626916667
 H2 0.275381 0.592775 0.49828  0.116626916667
 H2 0.275387 0.592772 0.99828  0.116626916667
 H2 0.775388 0.092783 0.4982  0.116626916667
 H2 0.775392 0.092781 0.99828  0.116626916667
 H2 0.775387 0.592776 0.49828  0.116626916667
 H2 0.775393 0.592773 0.99828  0.116626916667
 H1 0.255163 0.022347 0.4158  0.250519
 H1 0.255168 0.022341 0.91585  0.250519
 H1 0.25516 0.522341 0.41585  0.250519
 H1 0.255167 0.522335 0.91585  0.250519
 H1 0.755166 0.022348 0.4158  0.250519
 H1 0.755172 0.022342 0.91585  0.250519
 H1 0.755164 0.522342 0.41585  0.250519
 H1 0.755171 0.522336 0.91585  0.250519
 H2 0.490473 0.358949 0.1344  0.116626916667
 H2 0.490474 0.358942 0.63446  0.116626916667
 H2 0.490464 0.858943 0.13445  0.116626916667
 H2 0.490479 0.858935 0.63446  0.116626916667
 H2 0.990497 0.358948 0.1344  0.116626916667
 H2 0.990498 0.358942 0.63446  0.116626916667
 H2 0.990488 0.858943 0.13445  0.116626916667
 H2 0.990503 0.858935 0.63446  0.116626916667
 H2 0.118265 0.304051 0.13772  0.116626916667
 H2 0.118265 0.30404 0.63773  0.116626916667
 H2 0.118254 0.80404 0.13773  0.116626916667
 H2 0.118271 0.804038 0.63773  0.116626916667
 H2 0.618281 0.304053 0.13772  0.116626916667
 H2 0.61828 0.304042 0.63773  0.116626916667
 H2 0.61827 0.804042 0.13773  0.116626916667
 H2 0.618287 0.804039 0.63773  0.116626916667
 H2 0.163002 0.30938 0.26321  0.116626916667
 H2 0.163013 0.309376 0.76322  0.116626916667
 H2 0.163004 0.809376 0.26321  0.116626916667
 H2 0.16301 0.809369 0.76322  0.116626916667
 H2 0.663017 0.309382 0.26321  0.116626916667
 H2 0.663028 0.309379 0.76322  0.116626916667
 H2 0.663019 0.809378 0.26321  0.116626916667
 H2 0.663025 0.809371 0.76322  0.116626916667
 H2 0.159342 0.240848 0.22093  0.116626916667
 H2 0.15934 0.240851 0.72093  0.116626916667
 H2 0.15933 0.740852 0.22092  0.116626916667
 H2 0.159349 0.740837 0.72093  0.116626916667
 H2 0.659363 0.240849 0.22093  0.116626916667
 H2 0.659359 0.240853 0.72093  0.116626916667
 H2 0.65935 0.740854 0.22092  0.116626916667
 H2 0.659369 0.740839 0.7209  0.116626916667
 H2 0.487097 0.22769 0.170  0.116626916667
 H2 0.487115 0.227696 0.67010  0.116626916667
 H2 0.487108 0.727696 0.170  0.116626916667
 H2 0.487107 0.727681 0.67010  0.116626916667
 H2 0.987114 0.227694 0.170  0.116626916667
 H2 0.98713 0.227697 0.67010  0.116626916667
 H2 0.987123 0.727698 0.170  0.116626916667
 H2 0.987122 0.727683 0.67010  0.116626916667
 H2 0.365628 0.28792 0.17622  0.116626916667
 H2 0.365636 0.287918 0.67623  0.116626916667
 H2 0.365628 0.787918 0.17622  0.116626916667
 H2 0.365636 0.787908 0.67623  0.116626916667
 H2 0.865645 0.287924 0.17622  0.116626916667
 H2 0.865653 0.287921 0.67623  0.116626916667
 H2 0.865645 0.787922 0.17622  0.116626916667
 H2 0.865653 0.787912 0.67623  0.116626916667
 H2 0.044184 0.499125 0.40031  0.116626916667
 H2 0.044189 0.499117 0.90032  0.116626916667
 H2 0.044183 0.999117 0.40031  0.116626916667
 H2 0.044185 0.999109 0.90032  0.116626916667
 H2 0.544193 0.499123 0.40031  0.116626916667
 H2 0.544198 0.499115 0.9003  0.116626916667
 H2 0.544192 0.999115 0.40031  0.116626916667
 H2 0.544194 0.999108 0.9003  0.116626916667
 H2 0.07644 0.423486 0.4393  0.116626916667
 H2 0.076449 0.423479 0.93931  0.116626916667
 H2 0.076437 0.923479 0.4393  0.116626916667
 H2 0.076445 0.923472 0.93931  0.116626916667
 H2 0.576449 0.423485 0.43930  0.116626916667
 H2 0.576459 0.423478 0.93931  0.116626916667
 H2 0.576446 0.923478 0.43930  0.116626916667
 H2 0.576454 0.923471 0.93931  0.116626916667
 H2 0.085621 0.002124 0.0165  0.116626916667
 H2 0.085628 0.002121 0.51658  0.116626916667
 H2 0.085617 0.502119 0.0165  0.116626916667
 H2 0.085624 0.502115 0.51658  0.116626916667
 H2 0.585629 0.002124 0.0165  0.116626916667
 H2 0.585635 0.002121 0.51658  0.116626916667
 H2 0.585624 0.502119 0.0165  0.116626916667
 H2 0.585632 0.502115 0.51658  0.116626916667
 H2 0.083657 0.070975 0.46657  0.116626916667
 H2 0.083661 0.07097 0.96657  0.116626916667
 H2 0.083654 0.57097 0.46657  0.116626916667
 H2 0.08366 0.570964 0.96657  0.116626916667
 H2 0.583663 0.070974 0.46657  0.116626916667
 H2 0.583666 0.07097 0.96657  0.116626916667
 H2 0.58366 0.570969 0.46657  0.116626916667
 H2 0.583666 0.570964 0.96657  0.116626916667
 H2 0.324458 0.408834 0.44161  0.116626916667
 H2 0.324463 0.40883 0.94161  0.116626916667
 H2 0.324456 0.908828 0.44161  0.116626916667
 H2 0.324463 0.908823 0.94161  0.116626916667
 H2 0.824463 0.408834 0.44161  0.116626916667
 H2 0.824468 0.40883 0.94161  0.116626916667
 H2 0.824461 0.908828 0.44161  0.116626916667
 H2 0.824468 0.908823 0.94161  0.116626916667
 H2 0.224599 0.407188 0.0017  0.116626916667
 H2 0.224602 0.407186 0.50172  0.116626916667
 H2 0.224597 0.907181 0.00172  0.116626916667
 H2 0.224604 0.907178 0.50172  0.116626916667
 H2 0.724604 0.407189 0.0017  0.116626916667
 H2 0.724608 0.407187 0.50172  0.116626916667
 H2 0.724603 0.907182 0.0017  0.116626916667
 H2 0.724609 0.907179 0.50172  0.116626916667
 C1 0.437101 0.159092 0.33824  -0.465616
 C1 0.437113 0.159094 0.83825  -0.465616
 C1 0.437103 0.659095 0.33824  -0.465616
 C1 0.437109 0.659081 0.83825  -0.465616
 C1 0.937115 0.159092 0.3382  -0.465616
 C1 0.937127 0.159093 0.83825  -0.465616
 C1 0.937117 0.659094 0.33824  -0.465616
 C1 0.937123 0.65908 0.83825  -0.465616
 C2 0.392733 0.225009 0.25102  -0.04641725
 C2 0.392744 0.224996 0.75105  -0.04641725
 C2 0.392736 0.724995 0.25104  -0.04641725
 C2 0.392741 0.724996 0.75103  -0.04641725
 C2 0.892751 0.225009 0.25103  -0.04641725
 C2 0.892761 0.224997 0.75105  -0.04641725
 C2 0.892753 0.724995 0.25104  -0.04641725
 C2 0.892759 0.724997 0.7510  -0.04641725
 C2 0.061222 0.237726 0.30100  -0.04641725
 C2 0.061211 0.237712 0.80101  -0.04641725
 C2 0.0612 0.73771 0.30101  -0.04641725
 C2 0.061228 0.737713 0.80101  -0.04641725
 C2 0.561239 0.237727 0.30100  -0.04641725
 C2 0.561225 0.237711 0.80101  -0.04641725
 C2 0.561214 0.73771 0.30101  -0.04641725
 C2 0.561242 0.737713 0.80101  -0.04641725
 C1 0.386357 0.039148 0.08857  -0.465616
 C1 0.386364 0.039141 0.58857  -0.465616
 C1 0.386355 0.53914 0.08857  -0.465616
 C1 0.38636 0.539134 0.58857  -0.465616
 C1 0.886366 0.039147 0.08857  -0.465616
 C1 0.886373 0.03914 0.58857  -0.465616
 C1 0.886364 0.539139 0.08857  -0.465616
 C1 0.886369 0.539133 0.58857  -0.465616
 C2 0.361038 0.467659 0.01090  -0.04641725
 C2 0.361043 0.467657 0.51090  -0.04641725
 C2 0.361034 0.967655 0.01090  -0.04641725
 C2 0.361041 0.96765 0.51090  -0.04641725
 C2 0.861045 0.467659 0.01090  -0.04641725
 C2 0.861049 0.467657 0.51090  -0.04641725
 C2 0.861041 0.967654 0.01090  -0.04641725
 C2 0.861048 0.96765 0.51090  -0.04641725
 C2 0.221984 0.061938 0.02531  -0.04641725
 C2 0.221988 0.061934 0.52531  -0.04641725
 C2 0.221979 0.561932 0.02531  -0.04641725
 C2 0.221987 0.561927 0.52531  -0.04641725
 C2 0.72199 0.061938 0.02531  -0.04641725
 C2 0.721994 0.061935 0.52531  -0.04641725
 C2 0.721985 0.561932 0.02531  -0.04641725
 C2 0.721992 0.561928 0.52531  -0.04641725
 C1 0.062845 0.340891 0.16176  -0.465616
 C1 0.062856 0.340892 0.66176  -0.465616
 C1 0.062846 0.840893 0.16176  -0.465616
 C1 0.062853 0.840879 0.66177  -0.465616
 C1 0.562859 0.34089 0.16176  -0.465616
 C1 0.56287 0.340892 0.6617  -0.465616
 C1 0.562861 0.840892 0.16176  -0.465616
 C1 0.562867 0.840878 0.66177  -0.465616
 C2 0.107229 0.274987 0.24896  -0.04641725
 C2 0.107239 0.274975 0.74898  -0.04641725
 C2 0.107231 0.774974 0.24898  -0.04641725
 C2 0.107237 0.774975 0.74897  -0.04641725
 C2 0.607246 0.274988 0.24896  -0.04641725
 C2 0.607257 0.274975 0.74898  -0.04641725
 C2 0.607249 0.774974 0.24898  -0.04641725
 C2 0.607254 0.774975 0.74897  -0.04641725
 C2 0.43877 0.262271 0.19900  -0.04641725
 C2 0.438756 0.262255 0.69901  -0.04641725
 C2 0.438745 0.762253 0.19900  -0.04641725
 C2 0.438774 0.762257 0.6990  -0.04641725
 C2 0.938784 0.26227 0.19900  -0.04641725
 C2 0.938773 0.262256 0.69901  -0.04641725
 C2 0.938761 0.762254 0.19900  -0.04641725
 C2 0.938789 0.762258 0.69901  -0.04641725
 C1 0.113613 0.460831 0.4114  -0.465616
 C1 0.11362 0.460824 0.91144  -0.465616
 C1 0.113612 0.960823 0.4114  -0.465616
 C1 0.113617 0.960817 0.91144  -0.465616
 C1 0.613622 0.46083 0.4114  -0.465616
 C1 0.61363 0.460824 0.91144  -0.465616
 C1 0.613621 0.960822 0.41143  -0.465616
 C1 0.613626 0.960816 0.91144  -0.465616
 C2 0.138932 0.032315 0.48911  -0.04641725
 C2 0.138937 0.032313 0.98911  -0.04641725
 C2 0.138928 0.53231 0.48911  -0.04641725
 C2 0.138935 0.532306 0.98911  -0.04641725
 C2 0.638939 0.032315 0.48911  -0.04641725
 C2 0.638944 0.032313 0.98911  -0.04641725
 C2 0.638935 0.53231 0.48911  -0.04641725
 C2 0.638942 0.532306 0.98911  -0.04641725
 C2 0.277993 0.438038 0.474  -0.04641725
 C2 0.277996 0.438035 0.97470  -0.04641725
 C2 0.277988 0.938032 0.47469  -0.04641725
 C2 0.277996 0.938027 0.97470  -0.04641725
 C2 0.777998 0.438039 0.474  -0.04641725
 C2 0.778002 0.438036 0.97470  -0.04641725
 C2 0.777993 0.938033 0.474  -0.04641725
 C2 0.778001 0.938028 0.97470  -0.04641725
 N1 0.48594 0.188901 0.28493  -0.342891
 N1 0.485972 0.188874 0.78493  -0.342891
 N1 0.485965 0.688871 0.28492  -0.342891
 N1 0.485953 0.688885 0.7849  -0.342891
 N1 0.98596 0.1889 0.28493  -0.342891
 N1 0.985988 0.188876 0.78493  -0.342891
 N1 0.985982 0.688872 0.28492  -0.342891
 N1 0.98597 0.688886 0.78494  -0.342891
 N2 0.30044 0.009969 0.05516  0.154919
 N2 0.300446 0.009966 0.55516  0.154919
 N2 0.300437 0.509963 0.05516  0.154919
 N2 0.300439 0.509958 0.55516  0.154919
 N2 0.800446 0.00997 0.05516  0.154919
 N2 0.800453 0.009966 0.55516  0.154919
 N2 0.800444 0.509964 0.05516  0.154919
 N2 0.800445 0.509959 0.55516  0.154919
 N1 0.013997 0.311109 0.21508  -0.342891
 N1 0.014025 0.311085 0.71508  -0.342891
 N1 0.014019 0.811081 0.21507  -0.342891
 N1 0.014007 0.811095 0.71509  -0.342891
 N1 0.514012 0.311112 0.21509  -0.342891
 N1 0.514044 0.311085 0.71508  -0.342891
 N1 0.514036 0.811082 0.21507  -0.342891
 N1 0.514025 0.811096 0.71509  -0.342891
 N2 0.199526 0.490003 0.44485  0.154919
 N2 0.199532 0.49 0.94485  0.154919
 N2 0.199524 0.989998 0.44485  0.154919
 N2 0.199526 0.989992 0.94485  0.154919
 N2 0.699533 0.490003 0.44485  0.154919
 N2 0.699539 0.49 0.94485  0.154919
 N2 0.69953 0.989998 0.44485  0.154919
 N2 0.699532 0.989993 0.94485  0.154919
 O1 0.245463 0.113638 0.29806  -0.910504333333
 O1 0.245475 0.113637 0.79807  -0.910504333333
 O1 0.245466 0.613635 0.29806  -0.910504333333
 O1 0.245468 0.613628 0.79807  -0.910504333333
 O1 0.745481 0.11364 0.29806  -0.910504333333
 O1 0.745493 0.113638 0.79806  -0.910504333333
 O1 0.745484 0.613637 0.29806  -0.910504333333
 O1 0.745486 0.613629 0.79806  -0.910504333333
 O2 0.439294 0.039554 0.29774  -1.013341
 O2 0.439299 0.039551 0.79774  -1.013341
 O2 0.439289 0.539548 0.29774  -1.013341
 O2 0.439298 0.539544 0.79774  -1.013341
 O2 0.93931 0.039554 0.29774  -1.013341
 O2 0.939316 0.03955 0.79774  -1.013341
 O2 0.939305 0.539548 0.29774  -1.013341
 O2 0.939315 0.539544 0.79774  -1.013341
 O3 0.332446 0.064496 0.39307  -0.890241
 O3 0.332456 0.06449 0.8930  -0.890241
 O3 0.332441 0.564492 0.39307  -0.890241
 O3 0.332455 0.564482 0.89308  -0.890241
 O3 0.83244 0.064501 0.39307  -0.890241
 O3 0.83245 0.064495 0.89307  -0.890241
 O3 0.832435 0.564496 0.39307  -0.890241
 O3 0.832451 0.564486 0.89307  -0.890241
 O1 0.449352 0.102535 0.17224  -0.910504333333
 O1 0.449358 0.102531 0.67225  -0.910504333333
 O1 0.449349 0.602529 0.17224  -0.910504333333
 O1 0.449355 0.602523 0.67225  -0.910504333333
 O1 0.949371 0.102533 0.17224  -0.910504333333
 O1 0.949377 0.102529 0.67225  -0.910504333333
 O1 0.949368 0.602527 0.17224  -0.910504333333
 O1 0.949374 0.602522 0.6722  -0.910504333333
 O1 0.229794 0.122075 0.15227  -0.910504333333
 O1 0.2298 0.122071 0.65227  -0.910504333333
 O1 0.22979 0.622068 0.15227  -0.910504333333
 O1 0.229797 0.622064 0.65227  -0.910504333333
 O1 0.729812 0.122076 0.15227  -0.910504333333
 O1 0.729818 0.122072 0.65227  -0.910504333333
 O1 0.729808 0.622069 0.15227  -0.910504333333
 O1 0.729816 0.622065 0.65227  -0.910504333333
 O2 0.306513 0.016846 0.19736  -1.013341
 O2 0.306518 0.016842 0.69737  -1.013341
 O2 0.306511 0.516839 0.19736  -1.013341
 O2 0.306515 0.516835 0.69737  -1.013341
 O2 0.80653 0.016846 0.19736  -1.013341
 O2 0.806535 0.016842 0.69737  -1.013341
 O2 0.806527 0.516838 0.19736  -1.013341
 O2 0.806531 0.516835 0.69737  -1.013341
 O1 0.254516 0.386371 0.20187  -0.910504333333
 O1 0.254527 0.386369 0.70188  -0.910504333333
 O1 0.254519 0.886368 0.20187  -0.910504333333
 O1 0.254521 0.88636 0.70188  -0.910504333333
 O1 0.754534 0.386372 0.20187  -0.910504333333
 O1 0.754546 0.386371 0.70187  -0.910504333333
 O1 0.754537 0.88637 0.20187  -0.910504333333
 O1 0.754539 0.886362 0.70187  -0.910504333333
 O2 0.060661 0.460434 0.20228  -1.013341
 O2 0.060666 0.460431 0.70229  -1.013341
 O2 0.060656 0.960428 0.20228  -1.013341
 O2 0.060665 0.960424 0.7022  -1.013341
 O2 0.560678 0.460434 0.2022  -1.013341
 O2 0.560683 0.46043 0.70229  -1.013341
 O2 0.560673 0.960428 0.20229  -1.013341
 O2 0.560682 0.960424 0.70229  -1.013341
 O3 0.167293 0.435552 0.10691  -0.890241
 O3 0.1673 0.435546 0.60691  -0.890241
 O3 0.167287 0.935548 0.10691  -0.890241
 O3 0.167302 0.935538 0.6069  -0.890241
 O3 0.667287 0.435556 0.10691  -0.890241
 O3 0.667295 0.435551 0.60691  -0.890241
 O3 0.667283 0.935552 0.10691  -0.890241
 O3 0.667298 0.935542 0.60691  -0.890241
 O1 0.050629 0.39745 0.32775  -0.910504333333
 O1 0.050634 0.397446 0.82775  -0.910504333333
 O1 0.050625 0.897444 0.32775  -0.910504333333
 O1 0.050632 0.897438 0.82775  -0.910504333333
 O1 0.550647 0.397448 0.32775  -0.910504333333
 O1 0.550653 0.397444 0.82775  -0.910504333333
 O1 0.550644 0.897442 0.32775  -0.910504333333
 O1 0.550651 0.897437 0.82775  -0.910504333333
 O1 0.270192 0.377919 0.34772  -0.910504333333
 O1 0.270198 0.377916 0.84772  -0.910504333333
 O1 0.270188 0.877912 0.34772  -0.910504333333
 O1 0.270196 0.877909 0.84772  -0.910504333333
 O1 0.77021 0.37792 0.34772  -0.910504333333
 O1 0.770216 0.377916 0.84772  -0.910504333333
 O1 0.770206 0.877913 0.34772  -0.910504333333
 O1 0.770213 0.877909 0.84772  -0.910504333333
 O2 0.193443 0.483149 0.30264  -1.013341
 O2 0.193448 0.483145 0.80264  -1.013341
 O2 0.193441 0.983142 0.3026  -1.013341
 O2 0.193445 0.983138 0.80264  -1.013341
 O2 0.693459 0.483149 0.3026  -1.013341
 O2 0.693465 0.483145 0.80264  -1.013341
 O2 0.693457 0.983141 0.3026  -1.013341
 O2 0.693462 0.983138 0.80264  -1.013341
