#======================================================================

# CRYSTAL DATA

#----------------------------------------------------------------------

data_VESTA_phase_1


_pd_phase_name                         MOF
_cell_length_a                         17.31500
_cell_length_b                         19.30000
_cell_length_c                         22.36800
_cell_angle_alpha                      90.00000
_cell_angle_beta                       90.00200
_cell_angle_gamma                      94.96900
_symmetry_space_group_name_H-M         "P 1"
_symmetry_Int_Tables_number            1

loop_
_symmetry_equiv_pos_as_xyz
   "x, y, z"

loop_
   _atom_site_label
   _atom_site_fract_x
   _atom_site_fract_y
   _atom_site_fract_z
 _atom_site_charge
 Cd1 0.344961 0.01207 0.44376  0.980618363636
 Cd1 0.844963 0.012072 0.44376  0.980618363636
 Cd1 0.15505 0.487905 0.94376  0.980618363636
 Cd1 0.655049 0.487906 0.94376  0.980618363636
 Cd1 0.155042 0.987892 0.55623  0.980618363636
 Cd1 0.655043 0.987893 0.55623  0.980618363636
 Cd1 0.344952 0.512061 0.05623  0.980618363636
 Cd1 0.844954 0.512063 0.05623  0.980618363636
 H1 0.025776 0.156365 0.44819  0.113742649351
 H1 0.525775 0.156367 0.44819  0.113742649351
 H1 0.498402 0.247946 0.37245  0.113742649351
 H1 0.998403 0.247942 0.37245  0.113742649351
 H1 0.25517 0.14415 0.37542  0.113742649351
 H1 0.75517 0.144155 0.37542  0.113742649351
 H1 0.203935 0.505729 0.15140  0.113742649351
 H1 0.703937 0.505733 0.15140  0.113742649351
 H1 0.147846 0.430496 0.23451  0.113742649351
 H1 0.647847 0.430501 0.23451  0.113742649351
 H1 0.297775 0.274816 0.17732  0.113742649351
 H1 0.797775 0.27482 0.17732  0.113742649351
 H1 0.347173 0.356191 0.09811  0.113742649351
 H1 0.847173 0.356194 0.09811  0.113742649351
 H1 0.067941 0.028489 0.31139  0.113742649351
 H1 0.567945 0.028494 0.31140  0.113742649351
 H1 0.156607 0.079668 0.22934  0.113742649351
 H1 0.656611 0.07967 0.22934  0.113742649351
 H1 0.39372 0.164662 0.26455  0.113742649351
 H1 0.89372 0.164664 0.26455  0.113742649351
 H1 0.178406 0.329676 0.96477  0.113742649351
 H1 0.678411 0.329678 0.96477  0.113742649351
 H1 0.148488 0.232268 0.03640  0.113742649351
 H1 0.648492 0.232268 0.03640  0.113742649351
 H1 0.008893 0.368635 0.13528  0.113742649351
 H1 0.508892 0.368633 0.1352  0.113742649351
 H1 0.043294 0.459295 0.05976  0.113742649351
 H1 0.543293 0.459294 0.05976  0.113742649351
 H1 0.474262 0.343642 0.9481  0.113742649351
 H1 0.97426 0.343641 0.94818  0.113742649351
 H1 0.001633 0.252065 0.87243  0.113742649351
 H1 0.501633 0.252064 0.87243  0.113742649351
 H1 0.244851 0.355831 0.87541  0.113742649351
 H1 0.74485 0.355829 0.8754  0.113742649351
 H1 0.296038 0.994204 0.6514  0.113742649351
 H1 0.796043 0.994206 0.65142  0.113742649351
 H1 0.352138 0.069467 0.7345  0.113742649351
 H1 0.852143 0.069469 0.73453  0.113742649351
 H1 0.202273 0.225176 0.677  0.113742649351
 H1 0.702271 0.225174 0.67730  0.113742649351
 H1 0.152869 0.143795 0.59808  0.113742649351
 H1 0.652867 0.143794 0.59808  0.113742649351
 H1 0.432096 0.471523 0.81135  0.113742649351
 H1 0.932091 0.471519 0.81136  0.113742649351
 H1 0.343431 0.420347 0.72929  0.113742649351
 H1 0.843428 0.420345 0.72930  0.113742649351
 H1 0.106293 0.335314 0.76455  0.113742649351
 H1 0.606294 0.335311 0.76455  0.113742649351
 H1 0.321663 0.170324 0.46473  0.113742649351
 H1 0.821663 0.170325 0.46473  0.113742649351
 H1 0.351573 0.267732 0.53636  0.113742649351
 H1 0.851572 0.267733 0.53636  0.113742649351
 H1 0.491079 0.131331 0.63529  0.113742649351
 H1 0.991084 0.131336 0.63529  0.113742649351
 H1 0.45668 0.040672 0.55977  0.113742649351
 H1 0.956684 0.040676 0.55977  0.113742649351
 H1 0.474234 0.843597 0.55179  0.113742649351
 H1 0.974234 0.843597 0.55179  0.113742649351
 H1 0.001606 0.752018 0.62753  0.113742649351
 H1 0.501606 0.752017 0.62753  0.113742649351
 H1 0.244841 0.855812 0.6245  0.113742649351
 H1 0.74484 0.855812 0.62456  0.113742649351
 H1 0.296065 0.494232 0.84859  0.113742649351
 H1 0.796063 0.494232 0.8485  0.113742649351
 H1 0.352154 0.569462 0.7654  0.113742649351
 H1 0.852154 0.569462 0.7654  0.113742649351
 H1 0.202239 0.72515 0.8226  0.113742649351
 H1 0.70224 0.725151 0.8226  0.113742649351
 H1 0.15284 0.643778 0.90188  0.113742649351
 H1 0.65284 0.643778 0.90188  0.113742649351
 H1 0.432065 0.971481 0.68859  0.113742649351
 H1 0.932064 0.97148 0.68859  0.113742649351
 H1 0.3434 0.920305 0.77065  0.113742649351
 H1 0.8434 0.920305 0.77065  0.113742649351
 H1 0.106283 0.835303 0.73543  0.113742649351
 H1 0.606284 0.835301 0.73543  0.113742649351
 H1 0.321606 0.670294 0.03522  0.113742649351
 H1 0.821607 0.670296 0.03522  0.113742649351
 H1 0.351524 0.767702 0.96359  0.113742649351
 H1 0.851526 0.767705 0.96359  0.113742649351
 H1 0.491106 0.63133 0.86471  0.113742649351
 H1 0.991107 0.631332 0.86471  0.113742649351
 H1 0.456705 0.540671 0.94022  0.113742649351
 H1 0.956706 0.540673 0.94022  0.113742649351
 H1 0.025744 0.656316 0.05181  0.113742649351
 H1 0.525744 0.656324 0.05181  0.113742649351
 H1 0.49837 0.747898 0.12755  0.113742649351
 H1 0.998369 0.747887 0.12756  0.113742649351
 H1 0.255157 0.644131 0.12457  0.113742649351
 H1 0.755155 0.644137 0.12457  0.113742649351
 H1 0.203974 0.00576 0.34855  0.113742649351
 H1 0.703975 0.005766 0.34855  0.113742649351
 H1 0.147872 0.930494 0.26544  0.113742649351
 H1 0.647872 0.930501 0.26545  0.113742649351
 H1 0.297717 0.774777 0.32270  0.113742649351
 H1 0.797721 0.774785 0.32270  0.113742649351
 H1 0.347124 0.856161 0.40191  0.113742649351
 H1 0.847128 0.856167 0.40191  0.113742649351
 H1 0.067902 0.528436 0.18864  0.113742649351
 H1 0.567914 0.528451 0.18862  0.113742649351
 H1 0.156566 0.579611 0.27070  0.113742649351
 H1 0.656573 0.579618 0.27069  0.113742649351
 H1 0.39371 0.664654 0.23543  0.113742649351
 H1 0.893707 0.664652 0.23544  0.113742649351
 H1 0.178321 0.829633 0.5352  0.113742649351
 H1 0.678337 0.829639 0.53526  0.113742649351
 H1 0.148412 0.732224 0.46364  0.113742649351
 H1 0.648427 0.73223 0.46363  0.113742649351
 H1 0.008928 0.868631 0.36469  0.113742649351
 H1 0.508923 0.86863 0.36470  0.113742649351
 H1 0.043326 0.959291 0.4402  0.113742649351
 H1 0.543323 0.95929 0.44022  0.113742649351
 C1 0.154047 0.089715 0.46211  0.628413363636
 C1 0.654049 0.089719 0.46211  0.628413363636
 C2 0.141206 0.145754 0.41707  -0.110881636364
 C2 0.641207 0.145759 0.41707  -0.110881636364
 C3 0.069745 0.175374 0.41601  -0.119805636364
 C3 0.569745 0.175378 0.41601  -0.119805636364
 C3 0.05451 0.226473 0.37427  -0.119805636364
 C3 0.55451 0.226476 0.37427  -0.119805636364
 C2 0.113561 0.248354 0.33467  -0.110881636364
 C2 0.613561 0.248358 0.33467  -0.110881636364
 C2 0.18504 0.219747 0.33625  -0.110881636364
 C2 0.68504 0.219752 0.33625  -0.110881636364
 C3 0.200144 0.167678 0.37630  -0.119805636364
 C3 0.700144 0.167683 0.37630  -0.119805636364
 C4 0.236251 0.253493 0.28990  0.504555863636
 C4 0.736251 0.253496 0.28990  0.504555863636
 C4 0.114875 0.300306 0.28575  0.504555863636
 C4 0.614876 0.300312 0.28575  0.504555863636
 C5 0.222759 0.454053 0.15912  0.196108363636
 C5 0.72276 0.454056 0.15912  0.196108363636
 C3 0.191992 0.412298 0.20535  -0.119805636364
 C3 0.691992 0.412302 0.20535  -0.119805636364
 C6 0.218743 0.346276 0.2130  0.265973363636
 C6 0.718743 0.34628 0.2130  0.265973363636
 C3 0.274764 0.325054 0.17352  -0.119805636364
 C3 0.774764 0.325058 0.17352  -0.119805636364
 C5 0.302627 0.370671 0.12898  0.196108363636
 C5 0.802628 0.370675 0.12898  0.196108363636
 C1 0.429757 0.064875 0.34496  0.628413363636
 C1 0.929759 0.064878 0.34496  0.628413363636
 C2 0.477059 0.093204 0.29219  -0.110881636364
 C2 0.977058 0.093204 0.29219  -0.110881636364
 C3 0.050243 0.069074 0.28187  -0.119805636364
 C3 0.550245 0.069076 0.28187  -0.119805636364
 C3 0.099133 0.097087 0.23666  -0.119805636364
 C3 0.599137 0.09709 0.23666  -0.119805636364
 C2 0.072203 0.149465 0.20166  -0.110881636364
 C2 0.572206 0.149466 0.20166  -0.110881636364
 C2 0.498578 0.172484 0.21061  -0.110881636364
 C2 0.998578 0.172484 0.21061  -0.110881636364
 C3 0.449842 0.145283 0.25576  -0.119805636364
 C3 0.949842 0.145284 0.2557  -0.119805636364
 C4 0.112118 0.190532 0.15315  0.504555863636
 C4 0.612118 0.19053 0.15315  0.504555863636
 C4 0.487278 0.228342 0.16677  0.504555863636
 C4 0.987277 0.228341 0.1667  0.504555863636
 C5 0.140899 0.3359 0.  0.196108363636
 C5 0.640903 0.3359 0.  0.196108363636
 C3 0.123881 0.281593 0.04285  -0.119805636364
 C3 0.623884 0.281593 0.04285  -0.119805636364
 C6 0.075906 0.29243 0.09193  0.265973363636
 C6 0.575907 0.292429 0.09193  0.265973363636
 C3 0.04607 0.357268 0.09807  -0.119805636364
 C3 0.54607 0.357267 0.09807  -0.119805636364
 C5 0.065816 0.408536 0.05576  0.196108363636
 C5 0.565817 0.408535 0.05576  0.196108363636
 C1 0.345973 0.410265 0.96210  0.628413363636
 C1 0.845972 0.410265 0.96210  0.628413363636
 C2 0.358821 0.354235 0.91706  -0.110881636364
 C2 0.85882 0.354235 0.91706  -0.110881636364
 C3 0.430288 0.324625 0.91599  -0.119805636364
 C3 0.930287 0.324625 0.91599  -0.119805636364
 C3 0.445524 0.273531 0.8742  -0.119805636364
 C3 0.945523 0.27353 0.87426  -0.119805636364
 C2 0.386468 0.251642 0.83466  -0.110881636364
 C2 0.886468 0.251641 0.83466  -0.110881636364
 C2 0.314984 0.280241 0.83624  -0.110881636364
 C2 0.814984 0.28024 0.83624  -0.110881636364
 C3 0.299879 0.332306 0.87629  -0.119805636364
 C3 0.799879 0.332306 0.87629  -0.119805636364
 C4 0.26377 0.246492 0.78989  0.504555863636
 C4 0.763769 0.246489 0.78989  0.504555863636
 C4 0.385145 0.199677 0.78575  0.504555863636
 C4 0.885147 0.199679 0.78575  0.504555863636
 C5 0.277238 0.045914 0.65913  0.196108363636
 C5 0.777241 0.045915 0.65913  0.196108363636
 C3 0.308007 0.087671 0.70537  -0.119805636364
 C3 0.80801 0.087672 0.7053  -0.119805636364
 C6 0.281273 0.153702 0.71304  0.265973363636
 C6 0.781275 0.153702 0.71304  0.265973363636
 C3 0.225268 0.17493 0.67350  -0.119805636364
 C3 0.725268 0.174929 0.67350  -0.119805636364
 C5 0.197403 0.129311 0.62896  0.196108363636
 C5 0.697403 0.12931 0.62897  0.196108363636
 C1 0.070259 0.435114 0.84495  0.628413363636
 C1 0.570259 0.435112 0.84495  0.628413363636
 C2 0.022964 0.406789 0.79218  -0.110881636364
 C2 0.522966 0.406789 0.79218  -0.110881636364
 C3 0.449789 0.430931 0.78184  -0.119805636364
 C3 0.949787 0.43093 0.78184  -0.119805636364
 C3 0.400897 0.402915 0.73662  -0.119805636364
 C3 0.900894 0.402912 0.73663  -0.119805636364
 C2 0.42782 0.350525 0.70164  -0.110881636364
 C2 0.927819 0.350525 0.70164  -0.110881636364
 C2 0.001441 0.3275 0.71060  -0.110881636364
 C2 0.501442 0.327498 0.71060  -0.110881636364
 C3 0.050177 0.354702 0.75576  -0.119805636364
 C3 0.550178 0.354699 0.75576  -0.119805636364
 C4 0.387901 0.309456 0.65313  0.504555863636
 C4 0.887903 0.309459 0.65313  0.504555863636
 C4 0.012734 0.271633 0.66676  0.504555863636
 C4 0.512736 0.271633 0.66676  0.504555863636
 C5 0.359147 0.164092 0.50307  0.196108363636
 C5 0.859148 0.164094 0.50307  0.196108363636
 C3 0.376157 0.218398 0.54283  -0.119805636364
 C3 0.876157 0.2184 0.54283  -0.119805636364
 C6 0.424107 0.20755 0.59192  0.265973363636
 C6 0.924108 0.207553 0.5919  0.265973363636
 C3 0.45392 0.142705 0.59807  -0.119805636364
 C3 0.953923 0.142708 0.59807  -0.119805636364
 C5 0.434174 0.091438 0.55576  0.196108363636
 C5 0.934178 0.091441 0.55576  0.196108363636
 C1 0.345957 0.910244 0.53788  0.628413363636
 C1 0.845958 0.910245 0.53788  0.628413363636
 C2 0.358802 0.854206 0.58291  -0.110881636364
 C2 0.858803 0.854207 0.58291  -0.110881636364
 C3 0.430264 0.824587 0.58398  -0.119805636364
 C3 0.930265 0.824587 0.58398  -0.119805636364
 C3 0.445499 0.773488 0.62571  -0.119805636364
 C3 0.945499 0.773488 0.62571  -0.119805636364
 C2 0.386449 0.751606 0.66531  -0.110881636364
 C2 0.886449 0.751606 0.66531  -0.110881636364
 C2 0.31497 0.780214 0.66374  -0.110881636364
 C2 0.81497 0.780214 0.66374  -0.110881636364
 C3 0.299866 0.832282 0.62369  -0.119805636364
 C3 0.799866 0.832283 0.62369  -0.119805636364
 C4 0.263759 0.746471 0.7100  0.504555863636
 C4 0.763758 0.74647 0.71008  0.504555863636
 C4 0.385131 0.699648 0.71423  0.504555863636
 C4 0.885132 0.69965 0.71423  0.504555863636
 C5 0.277244 0.54591 0.8408  0.196108363636
 C5 0.777244 0.545909 0.8408  0.196108363636
 C3 0.308012 0.587663 0.79463  -0.119805636364
 C3 0.808012 0.587663 0.79463  -0.119805636364
 C6 0.281264 0.653686 0.78694  0.265973363636
 C6 0.781265 0.653686 0.78694  0.265973363636
 C3 0.225247 0.674911 0.82647  -0.119805636364
 C3 0.725248 0.674911 0.82647  -0.119805636364
 C5 0.197383 0.629296 0.87101  0.196108363636
 C5 0.697383 0.629296 0.87101  0.196108363636
 C1 0.070247 0.935095 0.65503  0.628413363636
 C1 0.570247 0.935095 0.65503  0.628413363636
 C2 0.022946 0.906766 0.70779  -0.110881636364
 C2 0.522947 0.906765 0.70779  -0.110881636364
 C3 0.449763 0.930896 0.71812  -0.119805636364
 C3 0.949763 0.930897 0.71812  -0.119805636364
 C3 0.400872 0.902881 0.76333  -0.119805636364
 C3 0.900871 0.902881 0.76333  -0.119805636364
 C2 0.427801 0.850502 0.79832  -0.110881636364
 C2 0.927801 0.850503 0.79832  -0.110881636364
 C2 0.001426 0.827483 0.78937  -0.110881636364
 C2 0.501427 0.827481 0.78937  -0.110881636364
 C3 0.050162 0.854684 0.74422  -0.119805636364
 C3 0.550163 0.854683 0.74422  -0.119805636364
 C4 0.387889 0.809439 0.8468  0.504555863636
 C4 0.88789 0.809441 0.84684  0.504555863636
 C4 0.012725 0.771623 0.8332  0.504555863636
 C4 0.512726 0.771622 0.83322  0.504555863636
 C5 0.359108 0.664069 0.99689  0.196108363636
 C5 0.85911 0.664071 0.99689  0.196108363636
 C3 0.376127 0.718376 0.95713  -0.119805636364
 C3 0.876129 0.718378 0.95713  -0.119805636364
 C6 0.424099 0.707537 0.90806  0.265973363636
 C6 0.9241 0.707539 0.90806  0.265973363636
 C3 0.453931 0.642698 0.90192  -0.119805636364
 C3 0.953932 0.6427 0.90192  -0.119805636364
 C5 0.434185 0.59143 0.94422  0.196108363636
 C5 0.934186 0.591432 0.94422  0.196108363636
 C1 0.154031 0.589696 0.03788  0.628413363636
 C1 0.654032 0.589701 0.03788  0.628413363636
 C2 0.141184 0.645723 0.0829  -0.110881636364
 C2 0.641185 0.645731 0.08292  -0.110881636364
 C3 0.069716 0.675331 0.08400  -0.119805636364
 C3 0.569718 0.67534 0.08399  -0.119805636364
 C3 0.05448 0.726425 0.12573  -0.119805636364
 C3 0.554481 0.726434 0.12573  -0.119805636364
 C2 0.113536 0.748313 0.16533  -0.110881636364
 C2 0.613537 0.748323 0.16533  -0.110881636364
 C2 0.18502 0.719716 0.16375  -0.110881636364
 C2 0.685021 0.719724 0.16375  -0.110881636364
 C3 0.200126 0.667652 0.12370  -0.119805636364
 C3 0.700126 0.66766 0.12370  -0.119805636364
 C4 0.236236 0.75347 0.21009  0.504555863636
 C4 0.736235 0.753475 0.21009  0.504555863636
 C4 0.114855 0.800273 0.21424  0.504555863636
 C4 0.614857 0.800285 0.21424  0.504555863636
 C5 0.222769 0.954048 0.34085  0.196108363636
 C5 0.72277 0.954054 0.34085  0.196108363636
 C3 0.191999 0.912288 0.29462  -0.119805636364
 C3 0.692 0.912296 0.29462  -0.119805636364
 C6 0.218727 0.846255 0.28695  0.265973363636
 C6 0.718729 0.846263 0.28694  0.265973363636
 C3 0.274727 0.825025 0.32649  -0.119805636364
 C3 0.77473 0.825033 0.32649  -0.119805636364
 C5 0.302594 0.870646 0.3710  0.196108363636
 C5 0.802597 0.870652 0.37102  0.196108363636
 C1 0.429741 0.564852 0.15504  0.628413363636
 C1 0.929744 0.564856 0.1550  0.628413363636
 C2 0.477038 0.593177 0.20781  -0.110881636364
 C2 0.977035 0.593174 0.20781  -0.110881636364
 C3 0.050209 0.569029 0.21815  -0.119805636364
 C3 0.550216 0.569036 0.21815  -0.119805636364
 C3 0.099099 0.597043 0.26337  -0.119805636364
 C3 0.59911 0.597057 0.2633  -0.119805636364
 C2 0.072177 0.649434 0.29835  -0.110881636364
 C2 0.572185 0.649442 0.29834  -0.110881636364
 C2 0.498561 0.672467 0.28939  -0.110881636364
 C2 0.998557 0.672462 0.28939  -0.110881636364
 C3 0.449825 0.645264 0.24423  -0.119805636364
 C3 0.949823 0.645262 0.24423  -0.119805636364
 C4 0.112098 0.690507 0.34685  0.504555863636
 C4 0.612097 0.690503 0.34686  0.504555863636
 C4 0.48727 0.728338 0.33322  0.504555863636
 C4 0.987263 0.728328 0.33323  0.504555863636
 C5 0.140842 0.835866 0.49692  0.196108363636
 C5 0.640853 0.83587 0.49691  0.196108363636
 C3 0.123833 0.78156 0.45717  -0.119805636364
 C3 0.623844 0.781564 0.45716  -0.119805636364
 C6 0.075891 0.79241 0.40807  0.265973363636
 C6 0.575894 0.792411 0.40807  0.265973363636
 C3 0.046083 0.857257 0.40192  -0.119805636364
 C3 0.546082 0.857257 0.40192  -0.119805636364
 C5 0.065827 0.908524 0.4442  0.196108363636
 C5 0.565828 0.908525 0.44423  0.196108363636
 N1 0.277409 0.434209 0.12140  -0.354016636364
 N1 0.77741 0.434212 0.12140  -0.354016636364
 N2 0.190761 0.301941 0.26003  -0.279571636364
 N2 0.690762 0.301946 0.26003  -0.279571636364
 N2 0.059292 0.23943 0.13470  -0.279571636364
 N2 0.559293 0.239429 0.13470  -0.279571636364
 N1 0.113038 0.39869 0.00913  -0.354016636364
 N1 0.61304 0.39869 0.00913  -0.354016636364
 N1 0.222604 0.065765 0.62140  -0.354016636364
 N1 0.722605 0.065765 0.62140  -0.354016636364
 N2 0.309257 0.19804 0.76003  -0.279571636364
 N2 0.809258 0.19804 0.76003  -0.279571636364
 N2 0.440721 0.260551 0.63469  -0.279571636364
 N2 0.940722 0.260554 0.63469  -0.279571636364
 N1 0.386973 0.101292 0.50911  -0.354016636364
 N1 0.886976 0.101295 0.50911  -0.354016636364
 N1 0.222597 0.565757 0.87859  -0.354016636364
 N1 0.722597 0.565757 0.87859  -0.354016636364
 N2 0.309246 0.698019 0.73995  -0.279571636364
 N2 0.809246 0.69802 0.73995  -0.279571636364
 N2 0.440712 0.760537 0.86529  -0.279571636364
 N2 0.940713 0.760539 0.86529  -0.279571636364
 N1 0.386965 0.601278 0.99086  -0.354016636364
 N1 0.886967 0.601279 0.99086  -0.354016636364
 N1 0.277399 0.934196 0.37859  -0.354016636364
 N1 0.777401 0.934201 0.3785  -0.354016636364
 N2 0.190744 0.801915 0.23996  -0.279571636364
 N2 0.690746 0.801924 0.23996  -0.279571636364
 N2 0.059277 0.739409 0.36530  -0.279571636364
 N2 0.55928 0.739411 0.36530  -0.279571636364
 N1 0.113022 0.898667 0.49088  -0.354016636364
 N1 0.613028 0.89867 0.49087  -0.354016636364
 O1 0.214346 0.056946 0.45788  -0.592754136364
 O1 0.714351 0.056955 0.45788  -0.592754136364
 O2 0.102861 0.077789 0.50259  -0.415726636364
 O2 0.602862 0.07779 0.50259  -0.415726636364
 O1 0.063157 0.334403 0.26841  -0.592754136364
 O1 0.563158 0.334408 0.26841  -0.592754136364
 O1 0.303484 0.244906 0.27866  -0.592754136364
 O1 0.803484 0.244911 0.27866  -0.592754136364
 O1 0.366826 0.091582 0.35694  -0.592754136364
 O1 0.866825 0.091581 0.3569  -0.592754136364
 O2 0.4563 0.016575 0.37550  -0.415726636364
 O2 0.9563 0.016575 0.37550  -0.415726636364
 O1 0.43007 0.258652 0.15639  -0.592754136364
 O1 0.930072 0.258657 0.15640  -0.592754136364
 O1 0.176853 0.186087 0.1327  -0.592754136364
 O1 0.676856 0.186089 0.13279  -0.592754136364
 O1 0.28566 0.443018 0.95788  -0.592754136364
 O1 0.785661 0.443019 0.95788  -0.592754136364
 O2 0.397151 0.422199 0.00259  -0.415726636364
 O2 0.897151 0.422199 0.00259  -0.415726636364
 O1 0.43686 0.16558 0.76840  -0.592754136364
 O1 0.936862 0.16558 0.7684  -0.592754136364
 O1 0.19653 0.255065 0.77866  -0.592754136364
 O1 0.696531 0.255065 0.77866  -0.592754136364
 O1 0.133184 0.408401 0.85694  -0.592754136364
 O1 0.633187 0.408402 0.8569  -0.592754136364
 O2 0.043709 0.483407 0.87549  -0.415726636364
 O2 0.543711 0.483408 0.87549  -0.415726636364
 O1 0.069942 0.241326 0.65639  -0.592754136364
 O1 0.569941 0.241319 0.65639  -0.592754136364
 O1 0.323157 0.313892 0.63278  -0.592754136364
 O1 0.823155 0.31389 0.63278  -0.592754136364
 O1 0.285648 0.942999 0.54210  -0.592754136364
 O1 0.785651 0.943003 0.54210  -0.592754136364
 O2 0.397145 0.922179 0.49740  -0.415726636364
 O2 0.897146 0.922179 0.49740  -0.415726636364
 O1 0.436845 0.665547 0.73157  -0.592754136364
 O1 0.936846 0.665547 0.73157  -0.592754136364
 O1 0.196524 0.755056 0.72132  -0.592754136364
 O1 0.696525 0.755057 0.72132  -0.592754136364
 O1 0.133177 0.908387 0.64305  -0.592754136364
 O1 0.633178 0.908387 0.64305  -0.592754136364
 O2 0.043701 0.983394 0.6244  -0.415726636364
 O2 0.543702 0.983394 0.6244  -0.415726636364
 O1 0.069935 0.741316 0.84359  -0.592754136364
 O1 0.569935 0.741313 0.84359  -0.592754136364
 O1 0.32315 0.813881 0.86720  -0.592754136364
 O1 0.82315 0.813881 0.86720  -0.592754136364
 O1 0.214338 0.556936 0.0421  -0.592754136364
 O1 0.714342 0.556945 0.0421  -0.592754136364
 O2 0.102855 0.577772 0.99739  -0.415726636364
 O2 0.602855 0.577772 0.99739  -0.415726636364
 O1 0.063139 0.83437 0.23158  -0.592754136364
 O1 0.563141 0.834381 0.23158  -0.592754136364
 O1 0.303475 0.744897 0.22133  -0.592754136364
 O1 0.803475 0.744903 0.22133  -0.592754136364
 O1 0.366822 0.591574 0.14304  -0.592754136364
 O1 0.866817 0.591568 0.14305  -0.592754136364
 O2 0.456296 0.516566 0.12449  -0.415726636364
 O2 0.956292 0.51656 0.12449  -0.415726636364
 O1 0.430057 0.758636 0.34360  -0.592754136364
 O1 0.930061 0.758647 0.34359  -0.592754136364
 O1 0.176845 0.686076 0.36721  -0.592754136364
 O1 0.676852 0.686085 0.36720  -0.592754136364
