#======================================================================

# CRYSTAL DATA

#----------------------------------------------------------------------

data_VESTA_phase_1


_pd_phase_name                         MOF
_cell_length_a                         21.51100
_cell_length_b                         12.44200
_cell_length_c                         26.09100
_cell_angle_alpha                      91.12600
_cell_angle_beta                       89.99800
_cell_angle_gamma                      89.98900
_symmetry_space_group_name_H-M         "P 1"
_symmetry_Int_Tables_number            1

loop_
_symmetry_equiv_pos_as_xyz
   "x, y, z"

loop_
   _atom_site_label
   _atom_site_fract_x
   _atom_site_fract_y
   _atom_site_fract_z
 _atom_site_charge
 Zn1 0.383468 0.574085 0.55987  0.892691386555
 Zn1 0.882442 0.574004 0.55985  0.892691386555
 Zn1 0.383525 0.926005 0.94016  0.892691386555
 Zn1 0.882441 0.926058 0.94011  0.892691386555
 Zn1 0.117568 0.426024 0.44012  0.892691386555
 Zn1 0.616545 0.425942 0.44010  0.892691386555
 Zn1 0.117571 0.073967 0.0598  0.892691386555
 Zn1 0.616491 0.074023 0.05981  0.892691386555
 Zn2 0.250573 0.500118 0.49999  1.13724138655
 Zn2 0.749437 0.499906 0.49998  1.13724138655
 Zn2 0.25055 0.999903 0.99998  1.13724138655
 Zn2 0.749455 0.000112 1e-0  1.13724138655
 H1 0.313312 0.983954 0.16189  0.107522011555
 H1 0.812145 0.984292 0.16187  0.107522011555
 H1 0.182543 0.956002 0.20738  0.107522011555
 H1 0.681428 0.955783 0.20739  0.107522011555
 H1 0.174589 0.864311 0.28630  0.107522011555
 H1 0.673529 0.864127 0.28626  0.107522011555
 H1 0.22 0.780246 0.3626  0.107522011555
 H1 0.718938 0.780176 0.3626  0.107522011555
 H1 0.403123 0.865609 0.31006  0.107522011555
 H1 0.902039 0.865926 0.31015  0.107522011555
 H1 0.357832 0.948636 0.23377  0.107522011555
 H1 0.856745 0.948817 0.23382  0.107522011555
 H1 0.269098 0.694079 0.42554  0.107522011555
 H1 0.768023 0.694157 0.42558  0.107522011555
 H1 0.396442 0.77001 0.38586  0.107522011555
 H1 0.89536 0.770284 0.38596  0.107522011555
 H1 0.349367 0.182283 0.50813  0.107522011555
 H1 0.848857 0.181743 0.50796  0.107522011555
 H1 0.480927 0.270826 0.52985  0.107522011555
 H1 0.980264 0.270778 0.52981  0.107522011555
 H1 0.064621 0.156068 0.52730  0.107522011555
 H1 0.565004 0.155539 0.5273  0.107522011555
 H1 0.385805 0.021509 0.48942  0.107522011555
 H1 0.88576 0.020573 0.4893  0.107522011555
 H1 0.279627 0.767359 0.56983  0.107522011555
 H1 0.779387 0.767645 0.57016  0.107522011555
 H1 0.279481 0.961706 0.60081  0.107522011555
 H1 0.779735 0.961934 0.60120  0.107522011555
 H1 0.379342 0.04445 0.63018  0.107522011555
 H1 0.879874 0.044027 0.63036  0.107522011555
 H1 0.137894 0.723089 0.62010  0.107522011555
 H1 0.638021 0.725009 0.62065  0.107522011555
 H1 0.124165 0.537876 0.58532  0.107522011555
 H1 0.624815 0.539722 0.58585  0.107522011555
 H1 0.016948 0.473593 0.56096  0.107522011555
 H1 0.517764 0.474732 0.56126  0.107522011555
 H1 0.49544 0.022284 0.64587  0.107522011555
 H1 0.995966 0.021135 0.64578  0.107522011555
 H1 0.088933 0.904391 0.64286  0.107522011555
 H1 0.588645 0.906098 0.64322  0.107522011555
 H1 0.313184 0.51592 0.33794  0.107522011555
 H1 0.812293 0.515665 0.3381  0.107522011555
 H1 0.18231 0.544128 0.29268  0.107522011555
 H1 0.681573 0.544376 0.29265  0.107522011555
 H1 0.174261 0.636069 0.21377  0.107522011555
 H1 0.673647 0.636378 0.21387  0.107522011555
 H1 0.21962 0.720013 0.13739  0.107522011555
 H1 0.719019 0.720269 0.137  0.107522011555
 H1 0.402741 0.633747 0.18965  0.107522011555
 H1 0.902112 0.633659 0.18969  0.107522011555
 H1 0.357503 0.550817 0.26598  0.107522011555
 H1 0.856854 0.550808 0.2660  0.107522011555
 H1 0.268804 0.805882 0.07430  0.107522011555
 H1 0.768065 0.805909 0.0744  0.107522011555
 H1 0.396079 0.72965 0.11402  0.107522011555
 H1 0.895414 0.729653 0.11398  0.107522011555
 H1 0.349363 0.317753 0.99207  0.107522011555
 H1 0.848906 0.318311 0.99203  0.107522011555
 H1 0.480975 0.228876 0.97082  0.107522011555
 H1 0.980318 0.229264 0.97013  0.107522011555
 H1 0.064664 0.343941 0.97271  0.107522011555
 H1 0.564993 0.344314 0.97278  0.107522011555
 H1 0.385847 0.478577 0.01084  0.107522011555
 H1 0.885754 0.479514 0.01055  0.107522011555
 H1 0.279858 0.732622 0.93012  0.107522011555
 H1 0.779388 0.732588 0.9297  0.107522011555
 H1 0.279848 0.538317 0.89908  0.107522011555
 H1 0.779726 0.538338 0.89860  0.107522011555
 H1 0.379766 0.455787 0.86963  0.107522011555
 H1 0.879878 0.456164 0.86947  0.107522011555
 H1 0.137913 0.776871 0.87987  0.107522011555
 H1 0.638104 0.775881 0.87887  0.107522011555
 H1 0.12417 0.962102 0.91465  0.107522011555
 H1 0.624764 0.96107 0.913  0.107522011555
 H1 0.016937 0.026413 0.93901  0.107522011555
 H1 0.517734 0.025682 0.93862  0.107522011555
 H1 0.495837 0.478197 0.85388  0.107522011555
 H1 0.995995 0.478929 0.85413  0.107522011555
 H1 0.088967 0.595599 0.85710  0.107522011555
 H1 0.588907 0.594663 0.85639  0.107522011555
 H1 0.187875 0.015756 0.838  0.107522011555
 H1 0.686707 0.016096 0.83807  0.107522011555
 H1 0.318592 0.044267 0.79258  0.107522011555
 H1 0.817477 0.044049 0.7925  0.107522011555
 H1 0.32649 0.135924 0.71371  0.107522011555
 H1 0.82543 0.135742 0.71367  0.107522011555
 H1 0.281081 0.219875 0.63735  0.107522011555
 H1 0.780019 0.219807 0.63734  0.107522011555
 H1 0.097981 0.134126 0.68982  0.107522011555
 H1 0.596896 0.134443 0.68990  0.107522011555
 H1 0.143273 0.051235 0.76615  0.107522011555
 H1 0.642187 0.051416 0.76620  0.107522011555
 H1 0.231996 0.305888 0.57439  0.107522011555
 H1 0.730922 0.305965 0.57443  0.107522011555
 H1 0.10466 0.229768 0.61401  0.107522011555
 H1 0.603578 0.230042 0.61411  0.107522011555
 H1 0.151163 0.818294 0.49201  0.107522011555
 H1 0.650654 0.817755 0.49184  0.107522011555
 H1 0.019755 0.729264 0.47016  0.107522011555
 H1 0.519092 0.729216 0.4701  0.107522011555
 H1 0.435016 0.844501 0.47262  0.107522011555
 H1 0.935399 0.843974 0.47267  0.107522011555
 H1 0.114261 0.979469 0.51061  0.107522011555
 H1 0.614214 0.97853 0.51056  0.107522011555
 H1 0.220633 0.232396 0.42980  0.107522011555
 H1 0.720388 0.232683 0.43013  0.107522011555
 H1 0.220283 0.038104 0.39877  0.107522011555
 H1 0.720529 0.038327 0.39917  0.107522011555
 H1 0.120143 0.956008 0.36961  0.107522011555
 H1 0.620666 0.955584 0.36980  0.107522011555
 H1 0.361993 0.275039 0.37932  0.107522011555
 H1 0.862125 0.276954 0.37988  0.107522011555
 H1 0.375204 0.460331 0.41412  0.107522011555
 H1 0.875856 0.462171 0.41465  0.107522011555
 H1 0.482255 0.525315 0.43870  0.107522011555
 H1 0.983075 0.526453 0.43900  0.107522011555
 H1 0.00405 0.978901 0.35420  0.107522011555
 H1 0.504569 0.977754 0.35411  0.107522011555
 H1 0.411366 0.093945 0.35675  0.107522011555
 H1 0.911084 0.095647 0.3571  0.107522011555
 H1 0.187723 0.484381 0.66184  0.107522011555
 H1 0.686833 0.484121 0.6620  0.107522011555
 H1 0.318445 0.455672 0.70732  0.107522011555
 H1 0.81771 0.455927 0.70729  0.107522011555
 H1 0.326373 0.363674 0.78609  0.107522011555
 H1 0.825762 0.363986 0.78620  0.107522011555
 H1 0.281003 0.279783 0.86247  0.107522011555
 H1 0.780404 0.280041 0.86258  0.107522011555
 H1 0.097909 0.366389 0.81028  0.107522011555
 H1 0.597282 0.366303 0.81032  0.107522011555
 H1 0.143167 0.449238 0.73392  0.107522011555
 H1 0.64252 0.449233 0.73398  0.107522011555
 H1 0.231952 0.194134 0.92555  0.107522011555
 H1 0.731218 0.194167 0.92567  0.107522011555
 H1 0.104606 0.270397 0.88598  0.107522011555
 H1 0.603945 0.270398 0.88595  0.107522011555
 H1 0.151118 0.68173 0.00794  0.107522011555
 H1 0.650656 0.68229 0.007  0.107522011555
 H1 0.019707 0.770775 0.02984  0.107522011555
 H1 0.519046 0.771168 0.02915  0.107522011555
 H1 0.435028 0.65573 0.02719  0.107522011555
 H1 0.935361 0.656098 0.02726  0.107522011555
 H1 0.11427 0.520525 0.98942  0.107522011555
 H1 0.614173 0.521467 0.98913  0.107522011555
 H1 0.220632 0.26746 0.07026  0.107522011555
 H1 0.720162 0.267429 0.06985  0.107522011555
 H1 0.220295 0.461705 0.10137  0.107522011555
 H1 0.720171 0.461733 0.10089  0.107522011555
 H1 0.120143 0.543874 0.13051  0.107522011555
 H1 0.620252 0.544259 0.13034  0.107522011555
 H1 0.361917 0.22416 0.12110  0.107522011555
 H1 0.862109 0.223166 0.12010  0.107522011555
 H1 0.375257 0.038975 0.08617  0.107522011555
 H1 0.875852 0.037938 0.08532  0.107522011555
 H1 0.482288 0.974365 0.06134  0.107522011555
 H1 0.983085 0.97363 0.06096  0.107522011555
 H1 0.004027 0.521105 0.14585  0.107522011555
 H1 0.504181 0.521845 0.14609  0.107522011555
 H1 0.411112 0.405377 0.14358  0.107522011555
 H1 0.911055 0.404435 0.14288  0.107522011555
 C1 0.229717 0.020858 0.11831  0.703008053221
 C1 0.728516 0.020915 0.11830  0.703008053221
 C2 0.262811 0.98631 0.16522  -0.123547780112
 C2 0.761639 0.986422 0.16522  -0.123547780112
 C2 0.233391 0.953845 0.20790  -0.123547780112
 C2 0.732279 0.953803 0.20790  -0.123547780112
 C3 0.262429 0.911871 0.25383  0.0234533865546
 C3 0.76135 0.911884 0.25383  0.0234533865546
 C2 0.2249 0.865099 0.29181  -0.123547780112
 C2 0.723835 0.865028 0.29180  -0.123547780112
 C2 0.250385 0.817947 0.33477  -0.123547780112
 C2 0.749319 0.817941 0.33477  -0.123547780112
 C3 0.315351 0.816011 0.34206  0.0234533865546
 C3 0.814279 0.816151 0.34211  0.0234533865546
 C2 0.352749 0.865779 0.3048  -0.123547780112
 C2 0.851667 0.865986 0.30494  -0.123547780112
 C2 0.327251 0.912244 0.26186  -0.123547780112
 C2 0.826168 0.912382 0.261  -0.123547780112
 C1 0.357896 0.658945 0.46287  0.703008053221
 C1 0.856807 0.659088 0.46294  0.703008053221
 C2 0.319076 0.706534 0.42226  -0.123547780112
 C2 0.817997 0.70669 0.42232  -0.123547780112
 C2 0.345687 0.763691 0.38466  -0.123547780112
 C2 0.844608 0.76389 0.3847  -0.123547780112
 C1 0.366442 0.351985 0.52529  0.703008053221
 C1 0.865546 0.351591 0.52524  0.703008053221
 C2 0.386591 0.238699 0.51784  -0.123547780112
 C2 0.885974 0.238347 0.51772  -0.123547780112
 C2 0.446789 0.208541 0.52033  -0.123547780112
 C2 0.94622 0.208346 0.52025  -0.123547780112
 C3 0.472085 0.101724 0.51011  0.0234533865546
 C3 0.971788 0.101619 0.51006  0.0234533865546
 C2 0.036602 0.086807 0.51556  -0.123547780112
 C2 0.536851 0.086484 0.51558  -0.123547780112
 C2 0.435905 0.01276 0.49418  -0.123547780112
 C2 0.935885 0.012278 0.49415  -0.123547780112
 C4 0.321851 0.806742 0.58392  0.186241386555
 C4 0.821739 0.806752 0.5841  0.186241386555
 C2 0.322292 0.914853 0.60090  -0.123547780112
 C2 0.822453 0.914827 0.60117  -0.123547780112
 C2 0.377556 0.960406 0.61759  -0.123547780112
 C2 0.877869 0.960014 0.61774  -0.123547780112
 C3 0.432413 0.898026 0.61763  0.0234533865546
 C3 0.932603 0.897305 0.61763  0.0234533865546
 C5 0.427268 0.789536 0.60016  0.151006386555
 C5 0.927188 0.78887 0.60013  0.151006386555
 C5 0.481582 0.721732 0.5984  0.151006386555
 C5 0.981354 0.720737 0.59825  0.151006386555
 C3 0.039761 0.763058 0.61377  0.0234533865546
 C3 0.53985 0.764408 0.61408  0.0234533865546
 C2 0.091738 0.693929 0.60943  -0.123547780112
 C2 0.591964 0.695559 0.60987  -0.123547780112
 C2 0.084039 0.590294 0.59056  -0.123547780112
 C2 0.584541 0.59185 0.59101  -0.123547780112
 C4 0.024301 0.554602 0.57639  0.186241386555
 C4 0.524931 0.555791 0.5767  0.186241386555
 C2 0.491887 0.938372 0.63333  -0.123547780112
 C2 0.992205 0.937273 0.63321  -0.123547780112
 C2 0.043608 0.872676 0.63142  -0.123547780112
 C2 0.543423 0.874085 0.63169  -0.123547780112
 C1 0.229669 0.479117 0.38165  0.703008053221
 C1 0.728627 0.478993 0.38166  0.703008053221
 C2 0.262674 0.513651 0.33470  -0.123547780112
 C2 0.761788 0.513571 0.33478  -0.123547780112
 C2 0.233158 0.546178 0.29207  -0.123547780112
 C2 0.732424 0.546292 0.29211  -0.123547780112
 C3 0.262111 0.588071 0.24609  0.0234533865546
 C3 0.761471 0.588202 0.24617  0.0234533865546
 C2 0.224559 0.635049 0.2081  -0.123547780112
 C2 0.723942 0.635269 0.20827  -0.123547780112
 C2 0.250017 0.682135 0.16519  -0.123547780112
 C2 0.749403 0.68232 0.16528  -0.123547780112
 C3 0.314971 0.683797 0.15781  0.0234533865546
 C3 0.814354 0.683866 0.15787  0.0234533865546
 C2 0.352379 0.633801 0.19491  -0.123547780112
 C2 0.85175 0.633811 0.19496  -0.123547780112
 C2 0.326913 0.5874 0.23796  -0.123547780112
 C2 0.826273 0.587445 0.2380  -0.123547780112
 C1 0.357658 0.840932 0.03705  0.703008053221
 C1 0.856842 0.840959 0.0370  0.703008053221
 C2 0.318774 0.79335 0.07762  -0.123547780112
 C2 0.818041 0.793359 0.07766  -0.123547780112
 C2 0.345327 0.73608 0.11521  -0.123547780112
 C2 0.844665 0.736109 0.11523  -0.123547780112
 C1 0.366396 0.147862 0.97531  0.703008053221
 C1 0.865586 0.148462 0.97473  0.703008053221
 C2 0.386605 0.261155 0.98263  -0.123547780112
 C2 0.886021 0.261693 0.98225  -0.123547780112
 C2 0.446812 0.291264 0.98015  -0.123547780112
 C2 0.946261 0.29169 0.97970  -0.123547780112
 C3 0.472093 0.398195 0.99011  0.0234533865546
 C3 0.97181 0.398416 0.98990  0.0234533865546
 C2 0.036627 0.413213 0.9844  -0.123547780112
 C2 0.536839 0.413439 0.9844  -0.123547780112
 C2 0.435929 0.487294 0.00595  -0.123547780112
 C2 0.935884 0.48778 0.00579  -0.123547780112
 C4 0.322102 0.693341 0.91599  0.186241386555
 C4 0.821744 0.693455 0.91572  0.186241386555
 C2 0.322617 0.585253 0.89898  -0.123547780112
 C2 0.822448 0.585402 0.89867  -0.123547780112
 C2 0.377909 0.539823 0.88225  -0.123547780112
 C2 0.877871 0.540172 0.8821  -0.123547780112
 C3 0.432709 0.602311 0.88217  0.0234533865546
 C3 0.932617 0.602811 0.88227  0.0234533865546
 C5 0.42748 0.710784 0.89966  0.151006386555
 C5 0.927205 0.711233 0.89979  0.151006386555
 C5 0.481714 0.778724 0.90133  0.151006386555
 C5 0.981372 0.779316 0.90170  0.151006386555
 C3 0.039785 0.736961 0.88618  0.0234533865546
 C3 0.539995 0.736219 0.8855  0.0234533865546
 C2 0.091755 0.806062 0.89053  -0.123547780112
 C2 0.592039 0.80521 0.88972  -0.123547780112
 C2 0.08405 0.909701 0.9094  -0.123547780112
 C2 0.584542 0.908855 0.90864  -0.123547780112
 C4 0.024305 0.945418 0.92357  0.186241386555
 C4 0.524929 0.944724 0.9230  0.186241386555
 C2 0.492203 0.562114 0.86641  -0.123547780112
 C2 0.992228 0.562797 0.86671  -0.123547780112
 C2 0.043635 0.627346 0.86852  -0.123547780112
 C2 0.543665 0.626551 0.8679  -0.123547780112
 C1 0.271499 0.979121 0.88167  0.703008053221
 C1 0.770298 0.979182 0.88166  0.703008053221
 C2 0.23838 0.013622 0.83475  -0.123547780112
 C2 0.737209 0.013738 0.83475  -0.123547780112
 C2 0.267741 0.046246 0.79207  -0.123547780112
 C2 0.766629 0.046206 0.79207  -0.123547780112
 C3 0.238669 0.088167 0.74614  0.0234533865546
 C3 0.73759 0.088182 0.74614  0.0234533865546
 C2 0.276184 0.135022 0.70817  -0.123547780112
 C2 0.775119 0.134954 0.70816  -0.123547780112
 C2 0.2507 0.182109 0.66519  -0.123547780112
 C2 0.749634 0.182105 0.66520  -0.123547780112
 C3 0.18574 0.183899 0.65786  0.0234533865546
 C3 0.684668 0.184039 0.65791  0.0234533865546
 C2 0.148352 0.134065 0.69502  -0.123547780112
 C2 0.64727 0.134272 0.69508  -0.123547780112
 C2 0.173851 0.087669 0.73807  -0.123547780112
 C2 0.672767 0.087808 0.73811  -0.123547780112
 C1 0.143209 0.340947 0.53703  0.703008053221
 C1 0.642122 0.341093 0.53710  0.703008053221
 C2 0.182023 0.293354 0.57765  -0.123547780112
 C2 0.680944 0.293513 0.57771  -0.123547780112
 C2 0.155412 0.23616 0.61523  -0.123547780112
 C2 0.654333 0.236357 0.61531  -0.123547780112
 C1 0.134471 0.648447 0.47473  0.703008053221
 C1 0.633576 0.64805 0.47467  0.703008053221
 C2 0.114046 0.761694 0.48225  -0.123547780112
 C2 0.613429 0.761339 0.48213  -0.123547780112
 C2 0.0538 0.791695 0.47972  -0.123547780112
 C2 0.55323 0.791499 0.47964  -0.123547780112
 C3 0.028232 0.898421 0.48992  0.0234533865546
 C3 0.527935 0.898315 0.48987  0.0234533865546
 C2 0.463169 0.913557 0.48439  -0.123547780112
 C2 0.963418 0.913234 0.48442  -0.123547780112
 C2 0.064135 0.987763 0.50582  -0.123547780112
 C2 0.564114 0.98728 0.50579  -0.123547780112
 C4 0.178281 0.193289 0.41581  0.186241386555
 C4 0.678162 0.193294 0.41605  0.186241386555
 C2 0.177566 0.085212 0.39880  -0.123547780112
 C2 0.67772 0.085183 0.3990  -0.123547780112
 C2 0.122149 0.040024 0.38223  -0.123547780112
 C2 0.622454 0.039627 0.38239  -0.123547780112
 C3 0.067415 0.102733 0.38234  0.0234533865546
 C3 0.567599 0.102012 0.38234  0.0234533865546
 C5 0.072831 0.211169 0.39984  0.151006386555
 C5 0.572745 0.210504 0.3998  0.151006386555
 C5 0.018665 0.279303 0.40172  0.151006386555
 C5 0.518433 0.27831 0.40153  0.151006386555
 C3 0.460164 0.235636 0.38589  0.0234533865546
 C3 0.960257 0.236982 0.38620  0.0234533865546
 C2 0.408051 0.304491 0.39009  -0.123547780112
 C2 0.908281 0.306113 0.39054  -0.123547780112
 C2 0.415476 0.408198 0.40896  -0.123547780112
 C2 0.915981 0.409751 0.40941  -0.123547780112
 C4 0.475086 0.444259 0.42326  0.186241386555
 C4 0.97572 0.445443 0.42358  0.186241386555
 C2 0.007812 0.062765 0.3667  -0.123547780112
 C2 0.508123 0.061664 0.36665  -0.123547780112
 C2 0.456589 0.125961 0.36828  -0.123547780112
 C2 0.95641 0.127362 0.36855  -0.123547780112
 C1 0.271387 0.521039 0.61830  0.703008053221
 C1 0.770346 0.520922 0.61832  0.703008053221
 C2 0.238228 0.486467 0.66519  -0.123547780112
 C2 0.737343 0.486394 0.66527  -0.123547780112
 C2 0.267594 0.453755 0.7078  -0.123547780112
 C2 0.766862 0.453872 0.70790  -0.123547780112
 C3 0.23855 0.41185 0.75380  0.0234533865546
 C3 0.737911 0.41198 0.75388  0.0234533865546
 C2 0.276079 0.364781 0.79170  -0.123547780112
 C2 0.775464 0.365004 0.79179  -0.123547780112
 C2 0.250617 0.31773 0.83469  -0.123547780112
 C2 0.750007 0.317917 0.83478  -0.123547780112
 C3 0.185667 0.316183 0.84210  0.0234533865546
 C3 0.685052 0.316254 0.84216  0.0234533865546
 C2 0.14827 0.366237 0.80501  -0.123547780112
 C2 0.647643 0.366248 0.80506  -0.123547780112
 C2 0.173748 0.412603 0.76194  -0.123547780112
 C2 0.673109 0.41265 0.76201  -0.123547780112
 C1 0.143172 0.159077 0.96292  0.703008053221
 C1 0.642363 0.159108 0.96292  0.703008053221
 C2 0.181977 0.206685 0.9223  -0.123547780112
 C2 0.681248 0.206697 0.92235  -0.123547780112
 C2 0.155355 0.26394 0.88474  -0.123547780112
 C2 0.654697 0.263967 0.88476  -0.123547780112
 C1 0.134429 0.851575 0.02524  0.703008053221
 C1 0.633622 0.852176 0.02465  0.703008053221
 C2 0.114002 0.738344 0.01772  -0.123547780112
 C2 0.613414 0.738885 0.01734  -0.123547780112
 C2 0.053762 0.708346 0.02027  -0.123547780112
 C2 0.553208 0.708779 0.01982  -0.123547780112
 C3 0.028214 0.601621 0.01007  0.0234533865546
 C3 0.527926 0.601849 0.0098  0.0234533865546
 C2 0.463181 0.586605 0.01548  -0.123547780112
 C2 0.963397 0.586825 0.01554  -0.123547780112
 C2 0.06414 0.512258 0.99418  -0.123547780112
 C2 0.564091 0.51275 0.99402  -0.123547780112
 C4 0.178276 0.306589 0.08425  0.186241386555
 C4 0.677918 0.306708 0.08398  0.186241386555
 C2 0.177572 0.414641 0.10130  -0.123547780112
 C2 0.677403 0.414796 0.10099  -0.123547780112
 C2 0.12215 0.459867 0.11786  -0.123547780112
 C2 0.62211 0.460224 0.11772  -0.123547780112
 C3 0.067404 0.397228 0.11770  0.0234533865546
 C3 0.567311 0.397734 0.11780  0.0234533865546
 C5 0.072816 0.288807 0.10018  0.151006386555
 C5 0.57254 0.289262 0.10031  0.151006386555
 C5 0.018649 0.220724 0.09827  0.151006386555
 C5 0.518307 0.221322 0.09864  0.151006386555
 C3 0.460026 0.263824 0.11438  0.0234533865546
 C3 0.960237 0.263077 0.11379  0.0234533865546
 C2 0.407982 0.194833 0.11025  -0.123547780112
 C2 0.908266 0.193976 0.10944  -0.123547780112
 C2 0.415478 0.09119 0.09133  -0.123547780112
 C2 0.915972 0.090338 0.09056  -0.123547780112
 C4 0.475091 0.055323 0.07689  0.186241386555
 C4 0.975716 0.054624 0.07639  0.186241386555
 C2 0.007794 0.437238 0.13327  -0.123547780112
 C2 0.507816 0.437929 0.13356  -0.123547780112
 C2 0.456354 0.373492 0.13199  -0.123547780112
 C2 0.956386 0.37269 0.13145  -0.123547780112
 N1 0.372923 0.746171 0.58373  -0.314413613445
 N1 0.872689 0.745871 0.58382  -0.314413613445
 N1 0.474763 0.618804 0.58067  -0.314413613445
 N1 0.974246 0.61787 0.58047  -0.314413613445
 N1 0.373117 0.754015 0.91615  -0.314413613445
 N1 0.872703 0.754275 0.91609  -0.314413613445
 N1 0.474817 0.881613 0.91916  -0.314413613445
 N1 0.974256 0.882178 0.91948  -0.314413613445
 N1 0.12733 0.254168 0.41615  -0.314413613445
 N1 0.627092 0.253869 0.41623  -0.314413613445
 N1 0.025773 0.382172 0.41950  -0.314413613445
 N1 0.525253 0.381239 0.41930  -0.314413613445
 N1 0.127318 0.245765 0.0838  -0.314413613445
 N1 0.626904 0.246032 0.08382  -0.314413613445
 N1 0.025764 0.117864 0.0804  -0.314413613445
 N1 0.525203 0.118432 0.08081  -0.314413613445
 O1 0.308664 0.369722 0.51807  -0.611786113445
 O1 0.807752 0.369146 0.51799  -0.611786113445
 O1 0.407748 0.421937 0.53754  -0.611786113445
 O1 0.906703 0.421726 0.53758  -0.611786113445
 O2 0.32773 0.606466 0.49836  -0.652128613445
 O2 0.826621 0.606511 0.49840  -0.652128613445
 O3 0.415512 0.670753 0.46447  -0.560578613445
 O3 0.914426 0.67091 0.46454  -0.560578613445
 O1 0.263896 0.04056 0.07959  -0.611786113445
 O1 0.762706 0.040928 0.0796  -0.611786113445
 O1 0.170407 0.02766 0.12006  -0.611786113445
 O1 0.669167 0.02737 0.12001  -0.611786113445
 O1 0.308466 0.130485 0.98189  -0.611786113445
 O1 0.807801 0.130927 0.98200  -0.611786113445
 O1 0.407775 0.077485 0.96381  -0.611786113445
 O1 0.906734 0.078294 0.96236  -0.611786113445
 O2 0.327533 0.893307 0.00151  -0.652128613445
 O2 0.826651 0.893549 0.00159  -0.652128613445
 O3 0.415287 0.829195 0.03553  -0.560578613445
 O3 0.914462 0.829124 0.03544  -0.560578613445
 O1 0.263886 0.459429 0.4203  -0.611786113445
 O1 0.762769 0.459054 0.42037  -0.611786113445
 O1 0.170359 0.472317 0.37993  -0.611786113445
 O1 0.669302 0.472402 0.37990  -0.611786113445
 O1 0.192264 0.630892 0.48198  -0.611786113445
 O1 0.691354 0.63031 0.48190  -0.611786113445
 O1 0.093312 0.578309 0.46239  -0.611786113445
 O1 0.592267 0.578098 0.46243  -0.611786113445
 O2 0.173392 0.393518 0.50157  -0.652128613445
 O2 0.672285 0.39356 0.50161  -0.652128613445
 O3 0.08559 0.329123 0.53543  -0.560578613445
 O3 0.584505 0.329282 0.5355  -0.560578613445
 O1 0.237305 0.959107 0.92032  -0.611786113445
 O1 0.736116 0.959487 0.9203  -0.611786113445
 O1 0.330847 0.97266 0.87996  -0.611786113445
 O1 0.829607 0.972363 0.87991  -0.611786113445
 O1 0.192214 0.869122 0.01797  -0.611786113445
 O1 0.691553 0.86955 0.01808  -0.611786113445
 O1 0.093277 0.921735 0.03761  -0.611786113445
 O1 0.592241 0.922554 0.03615  -0.611786113445
 O2 0.17336 0.106477 0.99838  -0.652128613445
 O2 0.672484 0.106727 0.99846  -0.652128613445
 O3 0.085553 0.17091 0.96452  -0.560578613445
 O3 0.584733 0.170843 0.96444  -0.560578613445
 O1 0.237244 0.54098 0.57960  -0.611786113445
 O1 0.736128 0.54061 0.57962  -0.611786113445
 O1 0.330712 0.527628 0.62007  -0.611786113445
 O1 0.829657 0.527707 0.62004  -0.611786113445
