#======================================================================

# CRYSTAL DATA

#----------------------------------------------------------------------

data_VESTA_phase_1


_pd_phase_name                         MOF
_cell_length_a                         13.00000
_cell_length_b                         18.34300
_cell_length_c                         18.75100
_cell_angle_alpha                      90.17800
_cell_angle_beta                       96.46700
_cell_angle_gamma                      90.12300
_symmetry_space_group_name_H-M         "P 1"
_symmetry_Int_Tables_number            1

loop_
_symmetry_equiv_pos_as_xyz
   "x, y, z"

loop_
   _atom_site_label
   _atom_site_fract_x
   _atom_site_fract_y
   _atom_site_fract_z
 _atom_site_charge
 Zn1 0.124583 0.512415 0.28080  0.880852446809
 Zn1 0.626138 0.512558 0.28138  0.880852446809
 Zn1 0.124368 0.012312 0.2191  0.880852446809
 Zn1 0.622322 0.012405 0.21932  0.880852446809
 Zn1 0.373253 0.487609 0.71927  0.880852446809
 Zn1 0.875458 0.487548 0.72142  0.880852446809
 Zn1 0.373347 0.987374 0.78093  0.880852446809
 Zn1 0.875548 0.98767 0.7807  0.880852446809
 H1 0.328611 0.719036 0.27094  0.109418002364
 H1 0.828584 0.720386 0.27268  0.109418002364
 H1 0.228069 0.770566 0.30331  0.109418002364
 H1 0.727206 0.771341 0.30457  0.109418002364
 H1 0.329424 0.687858 0.14862  0.109418002364
 H1 0.830384 0.688739 0.15034  0.109418002364
 H1 0.256255 0.700964 0.02128  0.109418002364
 H1 0.757634 0.701022 0.02285  0.109418002364
 H1 0.079424 0.754649 0.99189  0.109418002364
 H1 0.580372 0.753831 0.99283  0.109418002364
 H1 0.480758 0.794167 0.0912  0.109418002364
 H1 0.980679 0.795033 0.09071  0.109418002364
 H1 0.452966 0.791903 0.21298  0.109418002364
 H1 0.953246 0.791943 0.21261  0.109418002364
 H1 0.045459 0.756714 0.28121  0.109418002364
 H1 0.544925 0.756798 0.28186  0.109418002364
 H1 0.409135 0.456513 0.24225  0.109418002364
 H1 0.907548 0.457129 0.24102  0.109418002364
 H1 0.277453 0.452246 0.13812  0.109418002364
 H1 0.776414 0.452865 0.1367  0.109418002364
 H1 0.478866 0.590387 0.02665  0.109418002364
 H1 0.978635 0.590605 0.02552  0.109418002364
 H1 0.102848 0.589381 0.13711  0.109418002364
 H1 0.603518 0.589251 0.13809  0.109418002364
 H1 0.3182 0.551268 0.96142  0.109418002364
 H1 0.817851 0.551703 0.95993  0.109418002364
 H1 0.478159 0.611993 0.34576  0.109418002364
 H1 0.978735 0.611968 0.34657  0.109418002364
 H1 0.334752 0.601093 0.42175  0.109418002364
 H1 0.836242 0.601191 0.42335  0.109418002364
 H1 0.428201 0.377106 0.46183  0.109418002364
 H1 0.927829 0.376526 0.46136  0.109418002364
 H1 0.063933 0.395958 0.37949  0.109418002364
 H1 0.565401 0.396666 0.3808  0.109418002364
 H1 0.293894 0.42566 0.5269  0.109418002364
 H1 0.794562 0.425452 0.52764  0.109418002364
 H1 0.42107 0.219337 0.22958  0.109418002364
 H1 0.920237 0.218033 0.22997  0.109418002364
 H1 0.019963 0.270127 0.19712  0.109418002364
 H1 0.521706 0.270652 0.19689  0.109418002364
 H1 0.421184 0.188329 0.35181  0.109418002364
 H1 0.920548 0.188096 0.35239  0.109418002364
 H1 0.495263 0.201869 0.47900  0.109418002364
 H1 0.994975 0.202259 0.47946  0.109418002364
 H1 0.17206 0.256592 0.50798  0.109418002364
 H1 0.672357 0.256109 0.50801  0.109418002364
 H1 0.269727 0.296501 0.40856  0.109418002364
 H1 0.77028 0.296562 0.40895  0.109418002364
 H1 0.295872 0.292592 0.28640  0.109418002364
 H1 0.79686 0.292881 0.28671  0.109418002364
 H1 0.202877 0.256871 0.21819  0.109418002364
 H1 0.703467 0.258341 0.21813  0.109418002364
 H1 0.341509 0.95691 0.2579  0.109418002364
 H1 0.839609 0.957112 0.2580  0.109418002364
 H1 0.472804 0.952156 0.36227  0.109418002364
 H1 0.971221 0.952537 0.36208  0.109418002364
 H1 0.272122 0.089852 0.47483  0.109418002364
 H1 0.771234 0.090852 0.47460  0.109418002364
 H1 0.147737 0.089129 0.36332  0.109418002364
 H1 0.646567 0.089977 0.36328  0.109418002364
 H1 0.432036 0.050531 0.53999  0.109418002364
 H1 0.930957 0.051312 0.53976  0.109418002364
 H1 0.270086 0.11227 0.15381  0.109418002364
 H1 0.768617 0.111808 0.15411  0.109418002364
 H1 0.413014 0.101752 0.07731  0.109418002364
 H1 0.912101 0.100781 0.0781  0.109418002364
 H1 0.321795 0.87664 0.0385  0.109418002364
 H1 0.819823 0.875845 0.03931  0.109418002364
 H1 0.185082 0.895881 0.12002  0.109418002364
 H1 0.682763 0.895575 0.12039  0.109418002364
 H1 0.454992 0.925803 0.97263  0.109418002364
 H1 0.953695 0.924674 0.97366  0.109418002364
 H1 0.169598 0.281073 0.72931  0.109418002364
 H1 0.671053 0.280715 0.72895  0.109418002364
 H1 0.269573 0.229445 0.69635  0.109418002364
 H1 0.771697 0.229237 0.69664  0.109418002364
 H1 0.170171 0.312319 0.85169  0.109418002364
 H1 0.669866 0.311557 0.85134  0.109418002364
 H1 0.244495 0.299202 0.97878  0.109418002364
 H1 0.742901 0.298438 0.978  0.109418002364
 H1 0.421288 0.245183 0.  0.109418002364
 H1 0.919893 0.244968 0.  0.109418002364
 H1 0.018922 0.204919 0.90939  0.109418002364
 H1 0.518704 0.204369 0.90802  0.109418002364
 H1 0.04648 0.208089 0.78753  0.109418002364
 H1 0.544833 0.207469 0.78564  0.109418002364
 H1 0.451372 0.241603 0.71729  0.109418002364
 H1 0.954303 0.243334 0.71891  0.109418002364
 H1 0.091423 0.543071 0.7605  0.109418002364
 H1 0.589846 0.543961 0.75897  0.109418002364
 H1 0.222876 0.547493 0.86465  0.109418002364
 H1 0.721526 0.548403 0.86308  0.109418002364
 H1 0.021625 0.409056 0.9760  0.109418002364
 H1 0.520786 0.409615 0.97441  0.109418002364
 H1 0.396086 0.410656 0.86308  0.109418002364
 H1 0.89704 0.410152 0.86457  0.109418002364
 H1 0.182065 0.448308 0.04142  0.109418002364
 H1 0.681195 0.448991 0.03976  0.109418002364
 H1 0.021582 0.387911 0.65522  0.109418002364
 H1 0.520904 0.388202 0.65519  0.109418002364
 H1 0.163442 0.398691 0.57793  0.109418002364
 H1 0.664568 0.399057 0.57937  0.109418002364
 H1 0.071631 0.623336 0.54020  0.109418002364
 H1 0.571302 0.623059 0.53916  0.109418002364
 H1 0.433998 0.603596 0.62011  0.109418002364
 H1 0.935893 0.603813 0.62229  0.109418002364
 H1 0.204801 0.574555 0.47375  0.109418002364
 H1 0.705808 0.574389 0.47423  0.109418002364
 H1 0.078032 0.781485 0.77080  0.109418002364
 H1 0.577578 0.781441 0.77053  0.109418002364
 H1 0.47724 0.729633 0.80296  0.109418002364
 H1 0.977845 0.729708 0.80356  0.109418002364
 H1 0.078132 0.811448 0.64835  0.109418002364
 H1 0.578209 0.811667 0.64822  0.109418002364
 H1 0.004084 0.797215 0.52121  0.109418002364
 H1 0.504572 0.797885 0.52095  0.109418002364
 H1 0.327402 0.743839 0.49174  0.109418002364
 H1 0.827011 0.742867 0.49246  0.109418002364
 H1 0.228927 0.70383 0.59069  0.109418002364
 H1 0.729044 0.703028 0.59172  0.109418002364
 H1 0.201962 0.707279 0.71263  0.109418002364
 H1 0.702657 0.706483 0.7137  0.109418002364
 H1 0.294361 0.743128 0.78116  0.109418002364
 H1 0.795055 0.74286 0.78204  0.109418002364
 H1 0.15595 0.042026 0.74169  0.109418002364
 H1 0.658485 0.04262 0.74134  0.109418002364
 H1 0.025453 0.046861 0.63711  0.109418002364
 H1 0.52724 0.046702 0.63711  0.109418002364
 H1 0.227164 0.909391 0.52509  0.109418002364
 H1 0.728893 0.909383 0.52491  0.109418002364
 H1 0.350895 0.910223 0.63693  0.109418002364
 H1 0.853093 0.910629 0.63649  0.109418002364
 H1 0.067114 0.948578 0.4594  0.109418002364
 H1 0.568627 0.948285 0.45947  0.109418002364
 H1 0.227432 0.887342 0.84633  0.109418002364
 H1 0.728774 0.888301 0.84558  0.109418002364
 H1 0.084632 0.897955 0.9229  0.109418002364
 H1 0.585396 0.899209 0.92165  0.109418002364
 H1 0.175945 0.123075 0.96151  0.109418002364
 H1 0.677811 0.124064 0.96082  0.109418002364
 H1 0.312581 0.103715 0.87994  0.109418002364
 H1 0.814746 0.104472 0.87960  0.109418002364
 H1 0.042682 0.074035 0.02739  0.109418002364
 H1 0.543901 0.075173 0.02640  0.109418002364
 C1 0.204521 0.654559 0.30244  0.729067446809
 C1 0.705011 0.65516 0.30371  0.729067446809
 C2 0.243985 0.724309 0.26903  -0.359527553191
 C2 0.743843 0.725175 0.27040  -0.359527553191
 C3 0.198004 0.734912 0.19203  0.100233696809
 C3 0.698316 0.735424 0.19327  0.100233696809
 C4 0.253055 0.712168 0.13572  -0.147589553191
 C4 0.753847 0.712715 0.13719  -0.147589553191
 C4 0.211844 0.719123 0.06403  -0.147589553191
 C4 0.712846 0.719168 0.06541  -0.147589553191
 C4 0.113243 0.749058 0.04756  -0.147589553191
 C4 0.614012 0.748615 0.04858  -0.147589553191
 C4 0.057615 0.771558 0.10315  -0.147589553191
 C4 0.557893 0.771082 0.10393  -0.147589553191
 C3 0.098175 0.764907 0.17540  0.100233696809
 C3 0.598273 0.764934 0.17626  0.100233696809
 C2 0.035807 0.791674 0.23361  -0.359527553191
 C2 0.535423 0.791695 0.23421  -0.359527553191
 C1 0.063973 0.870179 0.25784  0.729067446809
 C1 0.563677 0.870205 0.25830  0.729067446809
 C5 0.422323 0.484981 0.19318  0.187432446809
 C5 0.921091 0.485504 0.19196  0.187432446809
 C4 0.348565 0.482857 0.13404  -0.147589553191
 C4 0.847577 0.483394 0.13266  -0.147589553191
 C3 0.367154 0.520118 0.07119  0.100233696809
 C3 0.866435 0.520534 0.06980  0.100233696809
 C4 0.460571 0.559592 0.07326  -0.147589553191
 C4 0.960013 0.559872 0.07209  -0.147589553191
 C5 0.029929 0.559423 0.13382  0.187432446809
 C5 0.5307 0.559176 0.1348  0.187432446809
 C4 0.295097 0.518869 0.00581  -0.147589553191
 C4 0.7945 0.519357 0.00429  -0.147589553191
 C5 0.462711 0.560617 0.37153  0.187432446809
 C5 0.96292 0.560464 0.37197  0.187432446809
 C4 0.383707 0.554157 0.41468  -0.147589553191
 C4 0.884539 0.55407 0.41563  -0.147589553191
 C3 0.367863 0.487311 0.44868  0.100233696809
 C3 0.86841 0.48706 0.44924  0.100233696809
 C4 0.435382 0.429925 0.43638  -0.147589553191
 C4 0.935174 0.429464 0.43618  -0.147589553191
 C5 0.512265 0.440168 0.39169  0.187432446809
 C5 0.0 0.439621 0.39098  0.187432446809
 C4 0.287806 0.476215 0.49600  -0.147589553191
 C4 0.788585 0.476033 0.49675  -0.147589553191
 C1 0.044426 0.1543 0.19773  0.729067446809
 C1 0.544637 0.154613 0.19778  0.729067446809
 C2 0.00476 0.223906 0.23144  -0.359527553191
 C2 0.505688 0.224614 0.23119  -0.359527553191
 C3 0.051498 0.235117 0.30828  0.100233696809
 C3 0.552275 0.235638 0.30810  0.100233696809
 C4 0.497642 0.212861 0.36455  -0.147589553191
 C4 0.997028 0.21266 0.36491  -0.147589553191
 C4 0.038963 0.220198 0.43645  -0.147589553191
 C4 0.539385 0.220061 0.43616  -0.147589553191
 C4 0.137678 0.250498 0.45244  -0.147589553191
 C4 0.638103 0.250289 0.45241  -0.147589553191
 C4 0.192725 0.272709 0.39652  -0.147589553191
 C4 0.693289 0.272825 0.39668  -0.147589553191
 C3 0.15143 0.265489 0.32442  0.100233696809
 C3 0.652182 0.265973 0.32450  0.100233696809
 C2 0.213131 0.292069 0.26585  -0.359527553191
 C2 0.714109 0.292959 0.26618  -0.359527553191
 C1 0.184964 0.370406 0.24187  0.729067446809
 C1 0.686791 0.371691 0.24322  0.729067446809
 C5 0.328313 0.985159 0.30731  0.187432446809
 C5 0.826669 0.98559 0.30727  0.187432446809
 C4 0.401913 0.982779 0.36655  -0.147589553191
 C4 0.900452 0.983292 0.36641  -0.147589553191
 C3 0.383519 0.019753 0.4298  0.100233696809
 C3 0.882313 0.02045 0.42962  0.100233696809
 C4 0.290351 0.05924 0.42794  -0.147589553191
 C4 0.789269 0.06008 0.42775  -0.147589553191
 C5 0.220347 0.059061 0.36626  0.187432446809
 C5 0.719098 0.059821 0.36616  0.187432446809
 C4 0.45537 0.018364 0.49534  -0.147589553191
 C4 0.95416 0.019011 0.49515  -0.147589553191
 C5 0.286049 0.060755 0.12828  0.187432446809
 C5 0.784553 0.060206 0.12874  0.187432446809
 C4 0.364713 0.054485 0.08483  -0.147589553191
 C4 0.86348 0.053653 0.08555  -0.147589553191
 C3 0.381014 0.987438 0.05106  0.100233696809
 C3 0.879597 0.986515 0.05190  0.100233696809
 C4 0.314214 0.929638 0.06380  -0.147589553191
 C4 0.812407 0.928908 0.06450  -0.147589553191
 C5 0.23765 0.939687 0.10878  0.187432446809
 C5 0.735607 0.939238 0.10924  0.187432446809
 C4 0.460987 0.976499 0.00365  -0.147589553191
 C4 0.959724 0.975378 0.00466  -0.147589553191
 C1 0.293656 0.345437 0.69752  0.729067446809
 C1 0.795294 0.345276 0.69773  0.729067446809
 C2 0.254151 0.275658 0.7308  -0.359527553191
 C2 0.755696 0.275445 0.73095  -0.359527553191
 C3 0.300819 0.264887 0.80765  0.100233696809
 C3 0.801523 0.264788 0.80798  0.100233696809
 C4 0.246496 0.287848 0.86425  -0.147589553191
 C4 0.746302 0.287354 0.86426  -0.147589553191
 C4 0.28837 0.280893 0.93580  -0.147589553191
 C4 0.787451 0.280404 0.93597  -0.147589553191
 C4 0.386946 0.250773 0.95182  -0.147589553191
 C4 0.886124 0.250597 0.95250  -0.147589553191
 C4 0.441832 0.228044 0.89593  -0.147589553191
 C4 0.941929 0.228291 0.8969  -0.147589553191
 C3 0.400554 0.234622 0.82382  0.100233696809
 C3 0.901426 0.234933 0.82466  0.100233696809
 C2 0.462001 0.207295 0.76532  -0.359527553191
 C2 0.963945 0.208322 0.76648  -0.359527553191
 C1 0.434082 0.128389 0.74241  0.729067446809
 C1 0.935935 0.129831 0.74214  0.729067446809
 C5 0.078233 0.514586 0.8096  0.187432446809
 C5 0.576781 0.515377 0.80801  0.187432446809
 C4 0.151886 0.516756 0.86878  -0.147589553191
 C4 0.650577 0.517592 0.86715  -0.147589553191
 C3 0.133264 0.479444 0.93161  0.100233696809
 C3 0.632291 0.480172 0.92999  0.100233696809
 C4 0.039907 0.439874 0.92945  -0.147589553191
 C4 0.538976 0.440531 0.92784  -0.147589553191
 C5 0.468781 0.440882 0.86625  0.187432446809
 C5 0.969837 0.440262 0.86783  0.187432446809
 C4 0.205211 0.480705 0.99703  -0.147589553191
 C4 0.704433 0.481366 0.9953  -0.147589553191
 C5 0.037136 0.439412 0.62973  0.187432446809
 C5 0.536548 0.439571 0.62948  0.187432446809
 C4 0.115242 0.445816 0.58583  -0.147589553191
 C4 0.615628 0.446005 0.58640  -0.147589553191
 C3 0.131217 0.512833 0.55220  0.100233696809
 C3 0.631576 0.512842 0.55243  0.100233696809
 C4 0.064464 0.570389 0.56539  -0.147589553191
 C4 0.564068 0.570263 0.56464  -0.147589553191
 C5 0.98842 0.560186 0.61075  0.187432446809
 C5 0.487122 0.560077 0.6092  0.187432446809
 C4 0.210903 0.523943 0.50458  -0.147589553191
 C4 0.711739 0.523855 0.50519  -0.147589553191
 C1 0.453395 0.84552 0.80233  0.729067446809
 C1 0.953648 0.84559 0.80234  0.729067446809
 C2 0.492976 0.775806 0.76874  -0.359527553191
 C2 0.993475 0.775765 0.76917  -0.359527553191
 C3 0.446757 0.764718 0.69177  0.100233696809
 C3 0.947034 0.764417 0.69227  0.100233696809
 C4 0.001681 0.78687 0.63573  -0.147589553191
 C4 0.501703 0.787227 0.63540  -0.147589553191
 C4 0.460218 0.779884 0.56374  -0.147589553191
 C4 0.959956 0.779281 0.56415  -0.147589553191
 C4 0.361468 0.74975 0.54737  -0.147589553191
 C4 0.861253 0.748994 0.54803  -0.147589553191
 C4 0.305972 0.727464 0.60304  -0.147589553191
 C4 0.806039 0.726795 0.60388  -0.147589553191
 C3 0.346806 0.73448 0.67525  0.100233696809
 C3 0.847123 0.734048 0.6760  0.100233696809
 C2 0.284565 0.707877 0.73353  -0.359527553191
 C2 0.785315 0.707439 0.73453  -0.359527553191
 C1 0.312676 0.629581 0.7576  0.729067446809
 C1 0.814259 0.629341 0.75883  0.729067446809
 C5 0.169584 0.013854 0.69240  0.187432446809
 C5 0.671875 0.014266 0.69210  0.187432446809
 C4 0.096381 0.016246 0.63294  -0.147589553191
 C4 0.598321 0.016311 0.63283  -0.147589553191
 C3 0.115287 0.979383 0.56975  0.100233696809
 C3 0.617015 0.979279 0.56967  0.100233696809
 C4 0.208549 0.939968 0.57190  -0.147589553191
 C4 0.710415 0.940049 0.57170  -0.147589553191
 C5 0.278179 0.940177 0.6337  0.187432446809
 C5 0.780335 0.940526 0.63344  0.187432446809
 C4 0.043778 0.980854 0.50403  -0.147589553191
 C4 0.545231 0.98048 0.50409  -0.147589553191
 C5 0.211507 0.938882 0.87183  0.187432446809
 C5 0.712888 0.939867 0.87104  0.187432446809
 C4 0.132919 0.945204 0.91534  -0.147589553191
 C4 0.634027 0.946347 0.91430  -0.147589553191
 C3 0.116659 0.012296 0.94903  0.100233696809
 C3 0.617963 0.013427 0.94807  0.100233696809
 C4 0.183474 0.070063 0.93624  -0.147589553191
 C4 0.685157 0.07105 0.93552  -0.147589553191
 C5 0.259971 0.059953 0.8912  0.187432446809
 C5 0.761886 0.060801 0.89070  0.187432446809
 C4 0.036675 0.023316 0.99641  -0.147589553191
 C4 0.537886 0.024483 0.99538  -0.147589553191
 N1 0.01171 0.522128 0.19320  -0.353092553191
 N1 0.512785 0.521746 0.19420  -0.353092553191
 N1 0.025696 0.504281 0.35901  -0.353092553191
 N1 0.526378 0.504684 0.35942  -0.353092553191
 N1 0.238068 0.021893 0.30651  -0.353092553191
 N1 0.736513 0.022442 0.30647  -0.353092553191
 N1 0.223173 0.004403 0.14086  -0.353092553191
 N1 0.721279 0.004039 0.14118  -0.353092553191
 N1 0.486448 0.478396 0.80689  -0.353092553191
 N1 0.987814 0.477745 0.80852  -0.353092553191
 N1 0.47293 0.495555 0.64153  -0.353092553191
 N1 0.974409 0.495558 0.64285  -0.353092553191
 N1 0.259962 0.977253 0.69348  -0.353092553191
 N1 0.762337 0.977772 0.69308  -0.353092553191
 N1 0.27435 0.995214 0.8591  -0.353092553191
 N1 0.776154 0.99605 0.85863  -0.353092553191
 O1 0.173049 0.656056 0.36273  -0.638457553191
 O1 0.675725 0.655976 0.364  -0.638457553191
 O2 0.20874 0.596766 0.26230  -0.640562553191
 O2 0.707677 0.597888 0.26266  -0.640562553191
 O1 0.0889 0.884731 0.32225  -0.638457553191
 O1 0.591002 0.884631 0.32245  -0.638457553191
 O2 0.057514 0.916831 0.20512  -0.640562553191
 O2 0.554969 0.917057 0.20573  -0.640562553191
 O1 0.075757 0.155863 0.13740  -0.638457553191
 O1 0.577659 0.155914 0.13797  -0.638457553191
 O2 0.040422 0.096588 0.23770  -0.640562553191
 O2 0.538422 0.096886 0.23746  -0.640562553191
 O1 0.159839 0.384653 0.17751  -0.638457553191
 O1 0.661768 0.387026 0.17907  -0.638457553191
 O2 0.191558 0.417297 0.29467  -0.640562553191
 O2 0.693714 0.417917 0.29663  -0.640562553191
 O1 0.325268 0.344002 0.63727  -0.638457553191
 O1 0.82672 0.343926 0.63742  -0.638457553191
 O2 0.289176 0.403206 0.73767  -0.640562553191
 O2 0.791081 0.402906 0.73809  -0.640562553191
 O1 0.409147 0.112583 0.67825  -0.638457553191
 O1 0.910726 0.115396 0.67774  -0.638457553191
 O2 0.440359 0.082671 0.79591  -0.640562553191
 O2 0.942646 0.083066 0.79477  -0.640562553191
 O1 0.421981 0.844069 0.86264  -0.638457553191
 O1 0.920211 0.844224 0.86201  -0.638457553191
 O2 0.457513 0.903192 0.76233  -0.640562553191
 O2 0.959573 0.903284 0.76258  -0.640562553191
 O1 0.337804 0.615426 0.82205  -0.638457553191
 O1 0.839906 0.61538 0.82321  -0.638457553191
 O2 0.306208 0.582623 0.70490  -0.640562553191
 O2 0.807871 0.582214 0.70622  -0.640562553191
