#======================================================================

# CRYSTAL DATA

#----------------------------------------------------------------------

data_VESTA_phase_1


_pd_phase_name                         MOF
_cell_length_a                         11.62800
_cell_length_b                         13.00200
_cell_length_c                         13.00300
_cell_angle_alpha                      95.91000
_cell_angle_beta                       106.12100
_cell_angle_gamma                      106.09600
_symmetry_space_group_name_H-M         "P 1"
_symmetry_Int_Tables_number            1

loop_
_symmetry_equiv_pos_as_xyz
   "x, y, z"

loop_
   _atom_site_label
   _atom_site_fract_x
   _atom_site_fract_y
   _atom_site_fract_z
 _atom_site_charge
 Co1 0.641106 0.179956 0.74326  0.898961
 Co1 0.858818 0.256755 0.82010  0.898961
 Co1 0.358853 0.820043 0.2567  0.898961
 Co1 0.14114 0.743244 0.17992  0.898961
 H1 0.908852 0.309931 0.16751  0.106788272727
 H1 0.0 0.348022 0.36916  0.106788272727
 H1 0.978232 0.325387 0.55065  0.106788272727
 H1 0.590367 0.125738 0.39688  0.106788272727
 H1 0.499508 0.081659 0.19436  0.106788272727
 H1 0.523273 0.104134 0.01344  0.106788272727
 H1 0.421586 0.122088 0.82974  0.106788272727
 H1 0.186282 0.059854 0.7614  0.106788272727
 H1 0.210067 0.046228 0.43442  0.106788272727
 H1 0.442185 0.106044 0.51664  0.106788272727
 H1 0.994034 0.0 0.61735  0.106788272727
 H1 0.59123 0.832574 0.68949  0.106788272727
 H1 0.498174 0.630844 0.65032  0.106788272727
 H1 0.522285 0.449326 0.67282  0.106788272727
 H1 0.90949 0.60308 0.87418  0.106788272727
 H1 0.0 0.805552 0.91909  0.106788272727
 H1 0.976164 0.986561 0.8968  0.106788272727
 H1 0.078311 0.170131 0.87436  0.106788272727
 H1 0.313608 0.238404 0.93579  0.106788272727
 H1 0.289914 0.565673 0.95650  0.106788272727
 H1 0.057848 0.483497 0.89700  0.106788272727
 H1 0.505853 0.38255 0.98939  0.106788272727
 H1 0.091156 0.689949 0.83254  0.106788272727
 H1 0.997801 0.651609 0.63087  0.106788272727
 H1 0.02183 0.674203 0.44936  0.106788272727
 H1 0.409564 0.874189 0.6031  0.106788272727
 H1 0.500392 0.918396 0.80563  0.106788272727
 H1 0.476616 0.896039 0.98657  0.106788272727
 H1 0.578367 0.87799 0.17028  0.106788272727
 H1 0.813669 0.940105 0.23860  0.106788272727
 H1 0.78988 0.953381 0.56558  0.106788272727
 H1 0.557766 0.893698 0.48337  0.106788272727
 H1 0.0 0.992169 0.38265  0.106788272727
 H1 0.40873 0.167428 0.31057  0.106788272727
 H1 0.501821 0.369147 0.34958  0.106788272727
 H1 0.477719 0.550653 0.32700  0.106788272727
 H1 0.090461 0.396877 0.12577  0.106788272727
 H1 0.999909 0.194399 0.08098  0.106788272727
 H1 0.023753 0.013409 0.10333  0.106788272727
 H1 0.921633 0.829828 0.12569  0.106788272727
 H1 0.686337 0.761548 0.06420  0.106788272727
 H1 0.71004 0.434279 0.04334  0.106788272727
 H1 0.942111 0.516465 0.10292  0.106788272727
 H1 0.494094 0.617396 0.  0.106788272727
 C1 0.718139 0.209527 0.07944  -0.012457
 C2 0.819394 0.260816 0.17368  -0.117439555556
 C1 0.808771 0.250096 0.27799  -0.012457
 C2 0.912106 0.299934 0.37542  -0.117439555556
 C2 0.899241 0.287703 0.4758  -0.117439555556
 C1 0.781454 0.225896 0.48431  -0.012457
 C2 0.67949 0.175349 0.39039  -0.117439555556
 C1 0.6904 0.18542 0.2860  -0.012457
 C2 0.588119 0.133132 0.18832  -0.117439555556
 C2 0.601333 0.145197 0.08799  -0.117439555556
 C3 0.731622 0.218153 0.97016  0.654916
 C3 0.768658 0.217823 0.59397  0.654916
 C4 0.370247 0.104156 0.74273  0.173121
 C2 0.239366 0.069925 0.70390  -0.117439555556
 C1 0.174894 0.047658 0.59104  -0.012457
 C2 0.251295 0.061719 0.52286  -0.117439555556
 C4 0.381733 0.095499 0.56799  0.173121
 C2 0.037518 0.0126 0.55272  -0.117439555556
 C1 0.781644 0.92058 0.79069  -0.012457
 C2 0.680584 0.826368 0.7388  -0.117439555556
 C1 0.691292 0.722017 0.74930  -0.012457
 C2 0.588185 0.624585 0.69884  -0.117439555556
 C2 0.601094 0.524104 0.71097  -0.117439555556
 C1 0.718693 0.515687 0.77330  -0.012457
 C2 0.820472 0.609592 0.8243  -0.117439555556
 C1 0.80948 0.713953 0.81446  -0.012457
 C2 0.911567 0.81165 0.86729  -0.117439555556
 C2 0.898299 0.912003 0.8553  -0.117439555556
 C3 0.768187 0.029845 0.78217  0.654916
 C3 0.731416 0.406048 0.78167  0.654916
 C4 0.129679 0.257188 0.89368  0.173121
 C2 0.260549 0.296002 0.92755  -0.117439555556
 C1 0.325041 0.408931 0.95160  -0.012457
 C2 0.248663 0.477187 0.93958  -0.117439555556
 C4 0.118234 0.432062 0.9060  0.173121
 C2 0.462417 0.44724 0.98629  -0.117439555556
 C1 0.281812 0.790497 0.9205  -0.012457
 C2 0.180594 0.73909 0.8263  -0.117439555556
 C1 0.191219 0.749759 0.72203  -0.012457
 C2 0.08794 0.699761 0.62460  -0.117439555556
 C2 0.100795 0.71198 0.52413  -0.117439555556
 C1 0.218534 0.773901 0.5157  -0.012457
 C2 0.320472 0.824522 0.60962  -0.117439555556
 C1 0.309572 0.814464 0.71397  -0.012457
 C2 0.411803 0.866896 0.81169  -0.117439555556
 C2 0.398588 0.85488 0.91203  -0.117439555556
 C3 0.26832 0.781901 0.0298  0.654916
 C3 0.231314 0.782056 0.40605  0.654916
 C4 0.629706 0.895818 0.2572  0.173121
 C2 0.760585 0.929992 0.29612  -0.117439555556
 C1 0.825055 0.952129 0.4089  -0.012457
 C2 0.748656 0.938011 0.47715  -0.117439555556
 C4 0.61822 0.90429 0.43202  0.173121
 C2 0.96243 0.987158 0.44729  -0.117439555556
 C1 0.218297 0.07941 0.20942  -0.012457
 C2 0.319364 0.173627 0.26122  -0.117439555556
 C1 0.308688 0.277966 0.25065  -0.012457
 C2 0.411788 0.375404 0.30110  -0.117439555556
 C2 0.398895 0.475875 0.28889  -0.117439555556
 C1 0.281282 0.484289 0.22659  -0.012457
 C2 0.179496 0.390378 0.17561  -0.117439555556
 C1 0.190459 0.286022 0.18557  -0.012457
 C2 0.088383 0.188316 0.13274  -0.117439555556
 C2 0.101627 0.087974 0.14474  -0.117439555556
 C3 0.231764 0.970148 0.21794  0.654916
 C3 0.268552 0.593934 0.21826  0.654916
 C4 0.870271 0.74277 0.1063  0.173121
 C2 0.739399 0.703951 0.07242  -0.117439555556
 C1 0.67491 0.59102 0.04832  -0.012457
 C2 0.75129 0.522766 0.06031  -0.117439555556
 C4 0.88172 0.567895 0.09392  0.173121
 C2 0.537533 0.552708 0.01361  -0.117439555556
 N1 0.44271 0.117227 0.67687  -0.320659
 N1 0.057242 0.323126 0.88265  -0.320659
 N1 0.557244 0.882684 0.32315  -0.320659
 N1 0.942709 0.676832 0.11734  -0.320659
 O1 0.630496 0.181773 0.88757  -0.5724515
 O1 0.84249 0.259606 0.96376  -0.5724515
 O1 0.657525 0.178016 0.60061  -0.5724515
 O1 0.869977 0.253146 0.67605  -0.5724515
 O1 0.869322 0.112407 0.81852  -0.5724515
 O1 0.657324 0.036289 0.74072  -0.5724515
 O1 0.842528 0.399402 0.8217  -0.5724515
 O1 0.630049 0.324024 0.74657  -0.5724515
 O1 0.369441 0.818282 0.11246  -0.5724515
 O1 0.15745 0.74044 0.0362  -0.5724515
 O1 0.342445 0.8219 0.39941  -0.5724515
 O1 0.129989 0.746788 0.32397  -0.5724515
 O1 0.130625 0.88759 0.18155  -0.5724515
 O1 0.342635 0.963715 0.25940  -0.5724515
 O1 0.157444 0.600598 0.17824  -0.5724515
 O1 0.369908 0.675967 0.253  -0.5724515
