#======================================================================

# CRYSTAL DATA

#----------------------------------------------------------------------

data_VESTA_phase_1


_pd_phase_name                         MOF
_cell_length_a                         14.57500
_cell_length_b                         14.70000
_cell_length_c                         26.01300
_cell_angle_alpha                      90.15000
_cell_angle_beta                       90.40800
_cell_angle_gamma                      90.18800
_symmetry_space_group_name_H-M         "P 1"
_symmetry_Int_Tables_number            1

loop_
_symmetry_equiv_pos_as_xyz
   "x, y, z"

loop_
   _atom_site_label
   _atom_site_fract_x
   _atom_site_fract_y
   _atom_site_fract_z
 _atom_site_charge
 Zn1 0.734576 0.55847 0.393  0.968424767442
 Zn2 0.730954 0.952717 0.65303  0.860914767442
 Zn1 0.7653 0.437369 0.89324  0.968424767442
 Zn2 0.766307 0.047163 0.15302  0.860914767442
 Zn1 0.261661 0.058055 0.10677  0.968424767442
 Zn2 0.269403 0.448467 0.84824  0.860914767442
 Zn1 0.23441 0.937677 0.60688  0.968424767442
 Zn2 0.230916 0.547348 0.34651  0.860914767442
 Zn1 0.263074 0.441349 0.60683  0.968424767442
 Zn2 0.268958 0.047086 0.34710  0.860914767442
 Zn1 0.234494 0.558727 0.10677  0.968424767442
 Zn2 0.233784 0.948592 0.8470  0.860914767442
 Zn1 0.738251 0.937704 0.89321  0.968424767442
 Zn2 0.729982 0.546961 0.15262  0.860914767442
 Zn1 0.765623 0.061927 0.39304  0.968424767442
 Zn2 0.766087 0.452968 0.65340  0.860914767442
 H1 0.736505 0.948921 0.53591  0.104796585624
 H1 0.750007 0.828716 0.46815  0.104796585624
 H1 0.715552 0.753949 0.65079  0.104796585624
 H1 0.281268 0.620146 0.24295  0.104796585624
 H1 0.423392 0.655927 0.19414  0.104796585624
 H1 0.43279 0.528331 0.36852  0.104796585624
 H1 0.766619 0.426088 0.3112  0.104796585624
 H1 0.895188 0.326455 0.28154  0.104796585624
 H1 0.043933 0.329613 0.3322  0.104796585624
 H1 0.05354 0.422712 0.41216  0.104796585624
 H1 0.914595 0.513104 0.43919  0.104796585624
 H1 0.758723 0.049332 0.03641  0.104796585624
 H1 0.745465 0.167789 0.96798  0.104796585624
 H1 0.781086 0.246967 0.15047  0.104796585624
 H1 0.217221 0.379495 0.74364  0.104796585624
 H1 0.074141 0.345551 0.69403  0.104796585624
 H1 0.068019 0.465124 0.87054  0.104796585624
 H1 0.739187 0.571127 0.81152  0.104796585624
 H1 0.613984 0.674544 0.78025  0.104796585624
 H1 0.464156 0.674825 0.82820  0.104796585624
 H1 0.448853 0.580095 0.90692  0.104796585624
 H1 0.584751 0.486321 0.93608  0.104796585624
 H1 0.262761 0.446002 0.96420  0.104796585624
 H1 0.248792 0.327176 0.03242  0.104796585624
 H1 0.285548 0.248744 0.85020  0.104796585624
 H1 0.716783 0.119192 0.25641  0.104796585624
 H1 0.574566 0.153803 0.30548  0.104796585624
 H1 0.565004 0.027558 0.13038  0.104796585624
 H1 0.230044 0.925902 0.18863  0.104796585624
 H1 0.102122 0.824605 0.21790  0.104796585624
 H1 0.953381 0.825965 0.16715  0.104796585624
 H1 0.943237 0.919294 0.08761  0.104796585624
 H1 0.08173 0.011109 0.06086  0.104796585624
 H1 0.235727 0.549875 0.46274  0.104796585624
 H1 0.248421 0.668555 0.53150  0.104796585624
 H1 0.216623 0.747311 0.34902  0.104796585624
 H1 0.782499 0.878723 0.75627  0.104796585624
 H1 0.925239 0.841244 0.80503  0.104796585624
 H1 0.932425 0.970062 0.63096  0.104796585624
 H1 0.265981 0.070154 0.68937  0.104796585624
 H1 0.393793 0.171951 0.71978  0.104796585624
 H1 0.542232 0.171005 0.67009  0.104796585624
 H1 0.552574 0.077458 0.59046  0.104796585624
 H1 0.414308 0.984951 0.56254  0.104796585624
 H1 0.261383 0.051284 0.46385  0.104796585624
 H1 0.246456 0.17137 0.53153  0.104796585624
 H1 0.283824 0.246302 0.34909  0.104796585624
 H1 0.717068 0.377811 0.75649  0.104796585624
 H1 0.575188 0.339957 0.80509  0.104796585624
 H1 0.564739 0.472628 0.63195  0.104796585624
 H1 0.233723 0.574784 0.688  0.104796585624
 H1 0.105649 0.674402 0.7187  0.104796585624
 H1 0.9559 0.670857 0.66907  0.104796585624
 H1 0.944496 0.577275 0.5894  0.104796585624
 H1 0.083037 0.486869 0.56153  0.104796585624
 H1 0.242005 0.9464 0.9633  0.104796585624
 H1 0.255235 0.828122 0.03189  0.104796585624
 H1 0.21874 0.748545 0.84948  0.104796585624
 H1 0.782186 0.619167 0.25593  0.104796585624
 H1 0.925632 0.655706 0.30477  0.104796585624
 H1 0.930726 0.529373 0.129  0.104796585624
 H1 0.259108 0.42452 0.18836  0.104796585624
 H1 0.384044 0.321288 0.22029  0.104796585624
 H1 0.53468 0.321451 0.17324  0.104796585624
 H1 0.551423 0.41662 0.09480  0.104796585624
 H1 0.415962 0.510424 0.06498  0.104796585624
 H1 0.736803 0.549723 0.03597  0.104796585624
 H1 0.751906 0.669072 0.96815  0.104796585624
 H1 0.713576 0.746068 0.15044  0.104796585624
 H1 0.283011 0.87814 0.74330  0.104796585624
 H1 0.425049 0.843398 0.69414  0.104796585624
 H1 0.435124 0.967628 0.86970  0.104796585624
 H1 0.765804 0.071749 0.81205  0.104796585624
 H1 0.892136 0.174387 0.78187  0.104796585624
 H1 0.042452 0.173101 0.8308  0.104796585624
 H1 0.056523 0.077889 0.90949  0.104796585624
 H1 0.919489 0.98488 0.93748  0.104796585624
 H1 0.759771 0.449555 0.53684  0.104796585624
 H1 0.747002 0.329762 0.46867  0.104796585624
 H1 0.781056 0.253946 0.65145  0.104796585624
 H1 0.217498 0.118443 0.24329  0.104796585624
 H1 0.074677 0.154821 0.19429  0.104796585624
 H1 0.067745 0.030367 0.36939  0.104796585624
 H1 0.738735 0.927207 0.31144  0.104796585624
 H1 0.612499 0.824454 0.27966  0.104796585624
 H1 0.461906 0.825961 0.32690  0.104796585624
 H1 0.446884 0.921494 0.40551  0.104796585624
 H1 0.583726 0.01472 0.43522  0.104796585624
 C1 0.735407 0.877022 0.54577  0.174226434109
 C2 0.743286 0.809928 0.50839  -0.119026232558
 C3 0.743678 0.718128 0.52243  -0.0560127325581
 C3 0.733533 0.696443 0.57465  -0.0560127325581
 C1 0.725531 0.767408 0.60998  0.174226434109
 C4 0.757557 0.645577 0.48232  0.651207267442
 C4 0.724224 0.600944 0.59484  0.651207267442
 C1 0.348926 0.608249 0.25968  0.174226434109
 C2 0.428389 0.627946 0.2328  -0.119026232558
 C3 0.514402 0.611363 0.25518  -0.0560127325581
 C3 0.516373 0.576263 0.30547  -0.0560127325581
 C1 0.433566 0.557193 0.32995  0.174226434109
 C4 0.599719 0.628173 0.22374  0.651207267442
 C4 0.603428 0.562615 0.33488  0.651207267442
 C1 0.83102 0.422229 0.3326  0.174226434109
 C2 0.903178 0.368158 0.31610  -0.119026232558
 C2 0.984721 0.36884 0.34462  -0.119026232558
 C2 0.990518 0.42107 0.38944  -0.119026232558
 C1 0.915165 0.472114 0.40423  0.174226434109
 C1 0.760122 0.121436 0.0459  0.174226434109
 C2 0.752366 0.18757 0.00818  -0.119026232558
 C3 0.752546 0.279726 0.02174  -0.0560127325581
 C3 0.762704 0.302745 0.07393  -0.0560127325581
 C1 0.770768 0.232562 0.1096  0.174226434109
 C4 0.740168 0.351087 0.98094  0.651207267442
 C4 0.771932 0.398731 0.09386  0.651207267442
 C1 0.149871 0.390286 0.76050  0.174226434109
 C2 0.069908 0.371664 0.73318  -0.119026232558
 C3 0.984321 0.386882 0.75575  -0.0560127325581
 C3 0.983262 0.419551 0.80665  -0.0560127325581
 C1 0.066522 0.43774 0.83156  0.174226434109
 C4 0.898432 0.370799 0.72402  0.651207267442
 C4 0.896636 0.432053 0.83598  0.651207267442
 C1 0.674243 0.576458 0.83179  0.174226434109
 C2 0.604092 0.632583 0.81436  -0.119026232558
 C2 0.52168 0.633622 0.84139  -0.119026232558
 C2 0.512902 0.580841 0.88563  -0.119026232558
 C1 0.586446 0.527787 0.90144  0.174226434109
 C1 0.264136 0.373896 0.95466  0.174226434109
 C2 0.256004 0.307648 0.99227  -0.119026232558
 C3 0.256063 0.215538 0.97860  -0.0560127325581
 C3 0.266825 0.192528 0.92653  -0.0560127325581
 C1 0.275135 0.262864 0.89094  0.174226434109
 C4 0.242667 0.144485 0.01932  0.651207267442
 C4 0.276355 0.096678 0.90653  0.651207267442
 C1 0.649032 0.107055 0.23970  0.174226434109
 C2 0.569642 0.126032 0.26668  -0.119026232558
 C3 0.48366 0.109054 0.24419  -0.0560127325581
 C3 0.481393 0.074435 0.19369  -0.0560127325581
 C1 0.564158 0.056109 0.16910  0.174226434109
 C4 0.398811 0.12534 0.27592  0.651207267442
 C4 0.394067 0.060909 0.1643  0.651207267442
 C1 0.165723 0.921196 0.16716  0.174226434109
 C2 0.093872 0.866194 0.18346  -0.119026232558
 C2 0.012374 0.865926 0.15491  -0.119026232558
 C2 0.006315 0.918159 0.11027  -0.119026232558
 C1 0.081407 0.970074 0.0956  0.174226434109
 C1 0.234894 0.621961 0.45337  0.174226434109
 C2 0.242289 0.688168 0.49131  -0.119026232558
 C3 0.242845 0.780284 0.47796  -0.0560127325581
 C3 0.233476 0.8033 0.42581  -0.0560127325581
 C1 0.226018 0.733057 0.38985  0.174226434109
 C4 0.255623 0.851523 0.51898  0.651207267442
 C4 0.224553 0.899317 0.40618  0.651207267442
 C1 0.849942 0.890146 0.73961  0.174226434109
 C2 0.929721 0.869471 0.76644  -0.119026232558
 C3 0.0 0.88546 0.74414  -0.0560127325581
 C3 0.0 0.920728 0.69387  -0.0560127325581
 C1 0.933707 0.940873 0.66946  0.174226434109
 C4 0.101018 0.867976 0.77584  0.651207267442
 C4 0.103466 0.933597 0.66454  0.651207267442
 C1 0.330271 0.074919 0.66840  0.174226434109
 C2 0.401994 0.130178 0.68534  -0.119026232558
 C2 0.483411 0.130668 0.65737  -0.119026232558
 C2 0.48955 0.078297 0.61269  -0.119026232558
 C1 0.4146 0.0 0.59745  0.174226434109
 C1 0.262563 0.123194 0.45399  0.174226434109
 C2 0.253818 0.190245 0.49133  -0.119026232558
 C3 0.253397 0.282048 0.47731  -0.0560127325581
 C3 0.264228 0.303768 0.42513  -0.0560127325581
 C1 0.273234 0.232858 0.38985  0.174226434109
 C4 0.238929 0.354593 0.51738  0.651207267442
 C4 0.273265 0.399333 0.40502  0.651207267442
 C1 0.649279 0.389956 0.73997  0.174226434109
 C2 0.569988 0.369119 0.76671  -0.119026232558
 C3 0.483828 0.386088 0.74459  -0.0560127325581
 C3 0.481413 0.422651 0.6946  -0.0560127325581
 C1 0.564098 0.442757 0.67027  0.174226434109
 C4 0.398971 0.368127 0.77619  0.651207267442
 C4 0.394171 0.436696 0.66535  0.651207267442
 C1 0.168815 0.578495 0.66736  0.174226434109
 C2 0.096988 0.632564 0.68429  -0.119026232558
 C2 0.014847 0.631615 0.6563  -0.119026232558
 C2 0.008056 0.579163 0.61163  -0.119026232558
 C1 0.083096 0.528108 0.59641  0.174226434109
 C1 0.240397 0.874281 0.953  0.174226434109
 C2 0.24815 0.808254 0.99171  -0.119026232558
 C3 0.247724 0.716089 0.97820  -0.0560127325581
 C3 0.237318 0.692947 0.92605  -0.0560127325581
 C1 0.229243 0.76301 0.89026  0.174226434109
 C4 0.259958 0.644744 0.01899  0.651207267442
 C4 0.228016 0.596909 0.90631  0.651207267442
 C1 0.849504 0.608018 0.23909  0.174226434109
 C2 0.929578 0.628112 0.26593  -0.119026232558
 C3 0.0 0.612266 0.24331  -0.0560127325581
 C3 0.0 0.577664 0.19281  -0.0560127325581
 C1 0.932585 0.558154 0.16836  0.174226434109
 C4 0.100717 0.628804 0.27502  0.651207267442
 C4 0.102543 0.564641 0.16346  0.651207267442
 C1 0.324526 0.419527 0.16854  0.174226434109
 C2 0.394447 0.36346 0.18632  -0.119026232558
 C2 0.477377 0.362689 0.15978  -0.119026232558
 C2 0.486955 0.415724 0.115  -0.119026232558
 C1 0.413641 0.468762 0.09954  0.174226434109
 C1 0.735531 0.62174 0.04573  0.174226434109
 C2 0.744305 0.688323 0.00833  -0.119026232558
 C3 0.744537 0.78031 0.02225  -0.0560127325581
 C3 0.73324 0.802792 0.07435  -0.0560127325581
 C1 0.724301 0.732205 0.10970  0.174226434109
 C4 0.759281 0.852034 0.98200  0.651207267442
 C4 0.724129 0.898505 0.09453  0.651207267442
 C1 0.350801 0.889669 0.76010  0.174226434109
 C2 0.430113 0.870607 0.73306  -0.119026232558
 C3 0.516158 0.886829 0.75564  -0.0560127325581
 C3 0.518524 0.92083 0.80627  -0.0560127325581
 C1 0.435856 0.93939 0.8309  0.174226434109
 C4 0.601116 0.870661 0.72398  0.651207267442
 C4 0.605874 0.933772 0.83569  0.651207267442
 C1 0.83091 0.076403 0.83276  0.174226434109
 C2 0.901775 0.132165 0.81595  -0.119026232558
 C2 0.984306 0.132361 0.84354  -0.119026232558
 C2 0.992451 0.079221 0.88774  -0.119026232558
 C1 0.918246 0.0 0.90291  0.174226434109
 C1 0.761008 0.377598 0.54653  0.174226434109
 C2 0.75357 0.310758 0.50894  -0.119026232558
 C3 0.753537 0.218875 0.52278  -0.0560127325581
 C3 0.763531 0.196794 0.57501  -0.0560127325581
 C1 0.771061 0.267558 0.61059  0.174226434109
 C4 0.740311 0.146818 0.48223  0.651207267442
 C4 0.772961 0.101135 0.59494  0.651207267442
 C1 0.150073 0.107609 0.26009  0.174226434109
 C2 0.070271 0.127656 0.2331  -0.119026232558
 C3 0.984597 0.112307 0.25563  -0.0560127325581
 C3 0.983294 0.078342 0.30617  -0.0560127325581
 C1 0.066391 0.058732 0.33070  0.174226434109
 C4 0.898926 0.12912 0.22398  0.651207267442
 C4 0.896736 0.066011 0.33563  0.651207267442
 C1 0.67339 0.922714 0.33139  0.174226434109
 C2 0.602674 0.866944 0.31367  -0.119026232558
 C2 0.519843 0.866875 0.34031  -0.119026232558
 C2 0.511206 0.920235 0.38447  -0.119026232558
 C1 0.585275 0.972912 0.4005  0.174226434109
 N1 0.726825 0.855817 0.59612  -0.371731899225
 N1 0.35121 0.572456 0.30766  -0.371731899225
 N1 0.836739 0.473725 0.37587  -0.371731899225
 N1 0.769173 0.143821 0.09624  -0.371731899225
 N1 0.148454 0.423877 0.80909  -0.371731899225
 N1 0.665757 0.524672 0.87456  -0.371731899225
 N1 0.273359 0.351528 0.90447  -0.371731899225
 N1 0.646493 0.07156 0.1915  -0.371731899225
 N1 0.159744 0.972619 0.12409  -0.371731899225
 N1 0.227052 0.64434 0.403  -0.371731899225
 N1 0.851665 0.926379 0.6917  -0.371731899225
 N1 0.336288 0.0 0.62526  -0.371731899225
 N1 0.272086 0.14446 0.40371  -0.371731899225
 N1 0.646589 0.427219 0.69236  -0.371731899225
 N1 0.16208 0.526768 0.62426  -0.371731899225
 N1 0.231084 0.851754 0.90364  -0.371731899225
 N1 0.850818 0.572508 0.19096  -0.371731899225
 N1 0.333785 0.471567 0.1259  -0.371731899225
 N1 0.725904 0.643635 0.09597  -0.371731899225
 N1 0.35346 0.924615 0.80837  -0.371731899225
 N1 0.83885 0.0 0.87544  -0.371731899225
 N1 0.769486 0.35602 0.59688  -0.371731899225
 N1 0.148386 0.072593 0.30824  -0.371731899225
 N1 0.665041 0.975116 0.3740  -0.371731899225
 O1 0.726719 0.665625 0.43674  -0.595152732558
 O2 0.797327 0.573032 0.49334  -0.579325232558
 O1 0.788489 0.577035 0.62695  -0.595152732558
 O2 0.656465 0.554424 0.58224  -0.579325232558
 O1 0.630609 0.553699 0.20390  -0.595152732558
 O2 0.628615 0.706937 0.21771  -0.579325232558
 O1 0.677212 0.601428 0.32016  -0.595152732558
 O1 0.602149 0.515354 0.3762  -0.595152732558
 O1 0.769421 0.32838 0.93561  -0.595152732558
 O2 0.703389 0.425651 0.99105  -0.579325232558
 O1 0.707163 0.423277 0.1250  -0.595152732558
 O2 0.839877 0.445009 0.08204  -0.579325232558
 O1 0.867233 0.44538 0.70445  -0.595152732558
 O2 0.869435 0.292037 0.71771  -0.579325232558
 O1 0.822371 0.3948 0.8201  -0.595152732558
 O1 0.898612 0.477301 0.87818  -0.595152732558
 O1 0.26932 0.168029 0.06522  -0.595152732558
 O2 0.207162 0.069074 0.  -0.579325232558
 O1 0.210975 0.071223 0.87536  -0.595152732558
 O2 0.345109 0.051522 0.9182  -0.579325232558
 O1 0.367678 0.050845 0.29562  -0.595152732558
 O2 0.370589 0.204085 0.2824  -0.579325232558
 O1 0.320299 0.098079 0.18009  -0.595152732558
 O1 0.394815 0.015601 0.12218  -0.595152732558
 O1 0.226913 0.828576 0.56434  -0.595152732558
 O2 0.292599 0.926222 0.5090  -0.579325232558
 O1 0.289777 0.924234 0.37533  -0.595152732558
 O2 0.156401 0.945027 0.41785  -0.579325232558
 O1 0.13316 0.942307 0.79573  -0.595152732558
 O2 0.128805 0.789043 0.78218  -0.579325232558
 O1 0.177073 0.894947 0.67981  -0.595152732558
 O1 0.102035 0.980091 0.62291  -0.595152732558
 O1 0.270228 0.334827 0.56291  -0.595152732558
 O2 0.198457 0.426726 0.5063  -0.579325232558
 O1 0.209283 0.423 0.37268  -0.595152732558
 O2 0.340546 0.446219 0.41794  -0.579325232558
 O1 0.367502 0.442174 0.79622  -0.595152732558
 O2 0.371157 0.288997 0.78226  -0.579325232558
 O1 0.320399 0.39776 0.6799  -0.595152732558
 O1 0.395217 0.484429 0.62417  -0.595152732558
 O1 0.230448 0.667452 0.06426  -0.595152732558
 O2 0.296807 0.570204 0.  -0.579325232558
 O1 0.293045 0.571936 0.87541  -0.595152732558
 O2 0.159839 0.550849 0.91798  -0.579325232558
 O1 0.132621 0.553935 0.29390  -0.595152732558
 O2 0.12891 0.707598 0.28217  -0.579325232558
 O1 0.175956 0.604861 0.1782  -0.595152732558
 O1 0.101493 0.516192 0.12241  -0.595152732558
 O1 0.731133 0.829988 0.93607  -0.595152732558
 O2 0.797097 0.925957 0.99312  -0.579325232558
 O1 0.788518 0.922795 0.12663  -0.595152732558
 O2 0.65658 0.944848 0.08201  -0.579325232558
 O1 0.632291 0.945343 0.70451  -0.595152732558
 O2 0.629377 0.791947 0.71748  -0.579325232558
 O1 0.679227 0.8952 0.82034  -0.595152732558
 O1 0.605429 0.980256 0.87744  -0.595152732558
 O1 0.77284 0.167866 0.43736  -0.595152732558
 O2 0.69964 0.07415 0.49209  -0.579325232558
 O1 0.709389 0.077027 0.6270  -0.595152732558
 O2 0.839921 0.054573 0.58215  -0.579325232558
 O1 0.866921 0.054511 0.20434  -0.595152732558
 O2 0.870886 0.207928 0.21760  -0.579325232558
 O1 0.82317 0.104984 0.32046  -0.595152732558
 O1 0.898123 0.019526 0.37724  -0.595152732558
