#======================================================================

# CRYSTAL DATA

#----------------------------------------------------------------------

data_VESTA_phase_1


_pd_phase_name                         MOF
_cell_length_a                         13.44400
_cell_length_b                         14.20100
_cell_length_c                         19.04500
_cell_angle_alpha                      90.77400
_cell_angle_beta                       108.29400
_cell_angle_gamma                      93.38400
_symmetry_space_group_name_H-M         "P 1"
_symmetry_Int_Tables_number            1

loop_
_symmetry_equiv_pos_as_xyz
   "x, y, z"

loop_
   _atom_site_label
   _atom_site_fract_x
   _atom_site_fract_y
   _atom_site_fract_z
 _atom_site_charge
 Cd1 0.93087 0.469427 0.19495  1.0029787
 Cd2 0.476852 0.887815 0.58160  1.0779787
 Cd1 0.06908 0.530522 0.8050  1.0029787
 Cd2 0.523107 0.112118 0.4183  1.0779787
 H1 0.175221 0.434261 0.17110  0.1251387
 H1 0.875913 0.397286 0.01125  0.1251387
 H1 0.021675 0.321956 0.95319  0.1251387
 H1 0.191788 0.350511 0.94302  0.1251387
 H1 0.479876 0.222075 0.05731  0.1251387
 H1 0.276429 0.307264 0.17803  0.1251387
 H1 0.349929 0.163187 0.24178  0.1251387
 H1 0.606938 0.281269 0.17910  0.1251387
 H1 0.679499 0.204596 0.31844  0.1251387
 H1 0.204447 0.280002 0.84408  0.1251387
 H1 0.497515 0.243851 0.81352  0.1251387
 H1 0.52844 0.262109 0.96307  0.1251387
 H1 0.05566 0.445768 0.3776  0.1251387
 H1 0.104172 0.268058 0.21447  0.1251387
 H1 0.249697 0.232072 0.34978  0.1251387
 H1 0.27633 0.602467 0.59294  0.1251387
 H1 0.189842 0.680369 0.69333  0.1251387
 H1 0.16144 0.384529 0.704  0.1251387
 H1 0.18172 0.478033 0.48989  0.1251387
 H1 0.247937 0.189277 0.45887  0.1251387
 H1 0.311374 0.308562 0.67958  0.1251387
 H1 0.38272 0.101223 0.51405  0.1251387
 H1 0.294126 0.155042 0.7057  0.1251387
 H1 0.371094 0.97736 0.71172  0.1251387
 H1 0.82474 0.565719 0.82886  0.1251387
 H1 0.124055 0.602699 0.98870  0.1251387
 H1 0.9783 0.678038 0.04676  0.1251387
 H1 0.808183 0.64948 0.05693  0.1251387
 H1 0.520094 0.777913 0.94265  0.1251387
 H1 0.72354 0.692724 0.8219  0.1251387
 H1 0.650034 0.836786 0.75816  0.1251387
 H1 0.39303 0.718721 0.82086  0.1251387
 H1 0.320463 0.795374 0.68151  0.1251387
 H1 0.795521 0.719979 0.15588  0.1251387
 H1 0.502453 0.756134 0.18643  0.1251387
 H1 0.47153 0.737885 0.03688  0.1251387
 H1 0.944304 0.554202 0.62228  0.1251387
 H1 0.895801 0.731911 0.78549  0.1251387
 H1 0.750283 0.767909 0.65018  0.1251387
 H1 0.723619 0.397508 0.40701  0.1251387
 H1 0.810105 0.319595 0.30663  0.1251387
 H1 0.838533 0.615434 0.29556  0.1251387
 H1 0.818248 0.521942 0.51006  0.1251387
 H1 0.752041 0.8107 0.54109  0.1251387
 H1 0.688598 0.69141 0.32038  0.1251387
 H1 0.617267 0.898756 0.48591  0.1251387
 H1 0.705844 0.844925 0.29417  0.1251387
 H1 0.628869 0.022606 0.28823  0.1251387
 C1 0.112398 0.413092 0.12090  0.160392033333
 C2 0.959899 0.393098 0.03569  -0.0501146333333
 C2 0.030502 0.355492 0.00654  -0.0501146333333
 C3 0.222784 0.329648 0.05986  0.176745366667
 C4 0.244266 0.322687 0.9930  -0.237257966667
 C3 0.337253 0.28373 0.99221  0.176745366667
 C4 0.408383 0.25377 0.05760  -0.237257966667
 C3 0.385456 0.262914 0.12375  0.176745366667
 C4 0.292781 0.300385 0.12584  -0.237257966667
 C1 0.429888 0.185554 0.24541  0.160392033333
 C2 0.565818 0.244553 0.21263  -0.0501146333333
 C2 0.600106 0.206579 0.28115  -0.0501146333333
 C1 0.287716 0.272532 0.85418  0.160392033333
 C2 0.439915 0.252366 0.8418  -0.0501146333333
 C2 0.457128 0.260431 0.91643  -0.0501146333333
 C1 0.088143 0.393558 0.35076  0.160392033333
 C2 0.116079 0.300196 0.26867  -0.0501146333333
 C2 0.187381 0.280228 0.3349  -0.0501146333333
 C2 0.237714 0.569496 0.62957  -0.0501146333333
 C2 0.195961 0.606999 0.68004  -0.0501146333333
 C1 0.18096 0.454853 0.68940  0.160392033333
 C3 0.243912 0.399545 0.58870  0.176745366667
 C4 0.211443 0.411447 0.51224  -0.237257966667
 C3 0.21354 0.335028 0.46583  0.176745366667
 C4 0.250932 0.249723 0.49517  -0.237257966667
 C3 0.287918 0.241352 0.57176  0.176745366667
 C4 0.284482 0.315768 0.6196  -0.237257966667
 C1 0.367667 0.089075 0.56584  0.160392033333
 C2 0.321655 0.11601 0.66682  -0.0501146333333
 C2 0.360706 0.028941 0.66910  -0.0501146333333
 C5 0.469654 0.694812 0.54015  0.6454137
 C6 0.486528 0.594356 0.51942  -0.1059488
 C7 0.520644 0.527351 0.57373  0.03922995
 C7 0.533485 0.434034 0.55489  0.03922995
 C5 0.702823 0.433671 0.09159  0.6454137
 C6 0.598209 0.468425 0.04393  -0.1059488
 C7 0.523982 0.496488 0.07647  0.03922995
 C7 0.427417 0.527203 0.03308  0.03922995
 C5 0.018757 0.674414 0.22940  0.6454137
 C6 0.097234 0.754125 0.27115  -0.1059488
 C7 0.186114 0.777936 0.2499  0.03922995
 C7 0.262827 0.846481 0.28973  0.03922995
 C6 0.253246 0.893169 0.35237  -0.1059488
 C7 0.162396 0.872534 0.37189  0.03922995
 C7 0.085396 0.804124 0.33169  0.03922995
 C5 0.343865 0.958771 0.39988  0.6454137
 C1 0.887566 0.586888 0.87906  0.160392033333
 C2 0.040068 0.606885 0.96426  -0.0501146333333
 C2 0.969469 0.644497 0.99341  -0.0501146333333
 C3 0.777187 0.670342 0.94010  0.176745366667
 C4 0.755705 0.677304 0.00693  -0.237257966667
 C3 0.662717 0.71626 0.00775  0.176745366667
 C4 0.591587 0.746219 0.94236  -0.237257966667
 C3 0.614514 0.737074 0.8762  0.176745366667
 C4 0.707188 0.699604 0.87412  -0.237257966667
 C1 0.570076 0.81442 0.75454  0.160392033333
 C2 0.434148 0.75543 0.78733  -0.0501146333333
 C2 0.399857 0.793394 0.71880  -0.0501146333333
 C1 0.712252 0.727452 0.14578  0.160392033333
 C2 0.560053 0.74762 0.15811  -0.0501146333333
 C2 0.542841 0.739559 0.08352  -0.0501146333333
 C1 0.911824 0.606411 0.64919  0.160392033333
 C2 0.883893 0.699775 0.73129  -0.0501146333333
 C2 0.812595 0.719748 0.66499  -0.0501146333333
 C2 0.762241 0.430474 0.37039  -0.0501146333333
 C2 0.803992 0.392967 0.31991  -0.0501146333333
 C1 0.819008 0.545112 0.31056  0.160392033333
 C3 0.756057 0.600428 0.41126  0.176745366667
 C4 0.788528 0.588527 0.48772  -0.237257966667
 C3 0.786434 0.664948 0.53413  0.176745366667
 C4 0.749044 0.750253 0.50478  -0.237257966667
 C3 0.712058 0.758621 0.42820  0.176745366667
 C4 0.715491 0.684205 0.38034  -0.237257966667
 C1 0.632313 0.910897 0.43412  0.160392033333
 C2 0.678317 0.883959 0.33313  -0.0501146333333
 C2 0.639264 0.971027 0.33085  -0.0501146333333
 C5 0.530294 0.305118 0.4598  0.6454137
 C6 0.513371 0.405562 0.48055  -0.1059488
 C7 0.479256 0.472569 0.42624  0.03922995
 C7 0.466415 0.565885 0.4450  0.03922995
 C5 0.297139 0.566329 0.90837  0.6454137
 C6 0.401752 0.531571 0.95604  -0.1059488
 C7 0.475979 0.503505 0.92350  0.03922995
 C7 0.572545 0.472791 0.96688  0.03922995
 C5 0.981207 0.325545 0.77056  0.6454137
 C6 0.902742 0.245817 0.72883  -0.1059488
 C7 0.81386 0.222001 0.75004  0.03922995
 C7 0.737153 0.153451 0.71025  0.03922995
 C6 0.746738 0.106762 0.64760  -0.1059488
 C7 0.837589 0.127407 0.62809  0.03922995
 C7 0.914585 0.195818 0.66829  0.03922995
 C5 0.656115 0.041177 0.60007  0.6454137
 Br1 0.548877 0.566119 0.67538  -0.0531263
 Br1 0.577286 0.342286 0.62883  -0.0531263
 Br1 0.557541 0.492405 0.18161  -0.0531263
 Br1 0.328386 0.566087 0.07958  -0.0531263
 Br1 0.960819 0.777895 0.35876  -0.0531263
 Br1 0.146861 0.939977 0.45525  -0.0531263
 Br1 0.201708 0.713666 0.16536  -0.0531263
 Br1 0.386023 0.87644 0.2619  -0.0531263
 Br1 0.451041 0.433809 0.32458  -0.0531263
 Br1 0.422643 0.657641 0.37114  -0.0531263
 Br1 0.442417 0.507584 0.81836  -0.0531263
 Br1 0.671577 0.433908 0.92038  -0.0531263
 Br1 0.039166 0.222052 0.64123  -0.0531263
 Br1 0.853125 0.05998 0.54472  -0.0531263
 Br1 0.798249 0.286275 0.83461  -0.0531263
 Br1 0.61395 0.123491 0.73799  -0.0531263
 N1 0.011577 0.428712 0.10684  -0.4054853
 N2 0.127658 0.367573 0.06155  0.0213720333333
 N2 0.359393 0.273944 0.92468  0.0213720333333
 N3 0.33418 0.259338 0.80338  -0.4385213
 N2 0.456748 0.231537 0.19040  0.0213720333333
 N1 0.515266 0.169514 0.30074  -0.4054853
 N1 0.054697 0.371071 0.2789  -0.4054853
 N2 0.169169 0.340097 0.3875  0.0213720333333
 N2 0.228063 0.471916 0.63608  0.0213720333333
 N1 0.160233 0.535131 0.71641  -0.4054853
 N2 0.325932 0.153906 0.60059  0.0213720333333
 N1 0.388943 0.012806 0.60598  -0.4054853
 N1 0.988386 0.571265 0.89311  -0.4054853
 N2 0.872311 0.632414 0.93841  0.0213720333333
 N2 0.640576 0.726044 0.07527  0.0213720333333
 N3 0.665787 0.740644 0.19658  -0.4385213
 N2 0.543219 0.768447 0.80956  0.0213720333333
 N1 0.484695 0.830453 0.69921  -0.4054853
 N1 0.945269 0.628895 0.72098  -0.4054853
 N2 0.830803 0.659879 0.61240  0.0213720333333
 N2 0.771902 0.528053 0.3638  0.0213720333333
 N1 0.839728 0.464831 0.28355  -0.4054853
 N2 0.674045 0.846067 0.39936  0.0213720333333
 N1 0.611032 0.987163 0.39397  -0.4054853
 O1 0.778992 0.497334 0.10647  -0.5973913
 O2 0.704689 0.350261 0.1111  -0.6014013
 O1 0.033475 0.595016 0.26086  -0.5973913
 O2 0.95098 0.691557 0.16990  -0.6014013
 O1 0.548014 0.755087 0.55046  -0.5973913
 O2 0.382065 0.711804 0.54600  -0.6014013
 O1 0.349945 0.043374 0.37959  -0.5973913
 O1 0.407759 0.921742 0.45378  -0.5973913
 O1 0.22097 0.502666 0.89349  -0.5973913
 O2 0.29528 0.649739 0.88880  -0.6014013
 O1 0.966485 0.404924 0.73908  -0.5973913
 O2 0.048971 0.308443 0.83008  -0.6014013
 O1 0.451978 0.244793 0.44953  -0.5973913
 O2 0.617882 0.288189 0.45394  -0.6014013
 O1 0.650014 0.956561 0.62034  -0.5973913
 O1 0.592241 0.078249 0.54619  -0.5973913
