#======================================================================

# CRYSTAL DATA

#----------------------------------------------------------------------

data_VESTA_phase_1


_pd_phase_name                         MOF
_cell_length_a                         13.56900
_cell_length_b                         13.57100
_cell_length_c                         23.18700
_cell_angle_alpha                      90.02900
_cell_angle_beta                       89.96600
_cell_angle_gamma                      90.01400
_symmetry_space_group_name_H-M         "P 1"
_symmetry_Int_Tables_number            1

loop_
_symmetry_equiv_pos_as_xyz
   "x, y, z"

loop_
   _atom_site_label
   _atom_site_fract_x
   _atom_site_fract_y
   _atom_site_fract_z
 _atom_site_charge
 Zn1 0.137617 0.19945 0.94274  0.936743076923
 Zn1 0.862336 0.800456 0.44274  0.936743076923
 Zn1 0.300517 0.637666 0.19272  0.936743076923
 Zn1 0.699607 0.362366 0.69276  0.936743076923
 Zn1 0.36235 0.699578 0.30725  0.936743076923
 Zn1 0.637678 0.300542 0.80729  0.936743076923
 Zn1 0.199455 0.137627 0.05728  0.936743076923
 Zn1 0.800427 0.862346 0.55727  0.936743076923
 H1 0.005613 0.338817 0.71341  0.0996330769231
 H1 0.229804 0.238439 0.8325  0.0996330769231
 H1 0.940249 0.251977 0.88744  0.0996330769231
 H1 0.327289 0.322113 0.78263  0.0996330769231
 H1 0.417425 0.32358 0.60608  0.0996330769231
 H1 0.241796 0.30067 0.57508  0.0996330769231
 H1 0.110324 0.283727 0.64794  0.0996330769231
 H1 0.994556 0.661149 0.21332  0.0996330769231
 H1 0.770154 0.761502 0.33259  0.0996330769231
 H1 0.059606 0.747913 0.38741  0.0996330769231
 H1 0.672745 0.677889 0.28257  0.0996330769231
 H1 0.582938 0.676465 0.10602  0.0996330769231
 H1 0.758628 0.699379 0.07503  0.0996330769231
 H1 0.889964 0.716297 0.14790  0.0996330769231
 H1 0.160853 0.505455 0.96344  0.0996330769231
 H1 0.261242 0.729853 0.08263  0.0996330769231
 H1 0.24799 0.440336 0.13739  0.0996330769231
 H1 0.177622 0.827233 0.03266  0.0996330769231
 H1 0.176344 0.917014 0.85612  0.0996330769231
 H1 0.19914 0.741339 0.82513  0.0996330769231
 H1 0.215949 0.610026 0.89  0.0996330769231
 H1 0.839062 0.494426 0.4633  0.0996330769231
 H1 0.738941 0.270142 0.58266  0.0996330769231
 H1 0.752151 0.559728 0.63745  0.0996330769231
 H1 0.822426 0.172741 0.53264  0.0996330769231
 H1 0.823648 0.082603 0.35609  0.0996330769231
 H1 0.800888 0.258218 0.32510  0.0996330769231
 H1 0.784112 0.389682 0.39797  0.0996330769231
 H1 0.494386 0.838846 0.53667  0.0996330769231
 H1 0.270109 0.738659 0.41740  0.0996330769231
 H1 0.559701 0.752148 0.36256  0.0996330769231
 H1 0.172688 0.822229 0.46742  0.0996330769231
 H1 0.082518 0.823592 0.64397  0.0996330769231
 H1 0.258132 0.800693 0.67496  0.0996330769231
 H1 0.389613 0.783795 0.602  0.0996330769231
 H1 0.50543 0.161123 0.03662  0.0996330769231
 H1 0.729848 0.261556 0.91743  0.0996330769231
 H1 0.44034 0.248022 0.86263  0.0996330769231
 H1 0.82723 0.177854 0.9674  0.0996330769231
 H1 0.917005 0.176448 0.14395  0.0996330769231
 H1 0.741322 0.199386 0.17494  0.0996330769231
 H1 0.610012 0.216317 0.10207  0.0996330769231
 H1 0.339097 0.005632 0.2865  0.0996330769231
 H1 0.238713 0.229818 0.16740  0.0996330769231
 H1 0.252009 0.940253 0.11258  0.0996330769231
 H1 0.322315 0.327295 0.21734  0.0996330769231
 H1 0.323642 0.417385 0.39390  0.0996330769231
 H1 0.300885 0.241753 0.42489  0.0996330769231
 H1 0.284068 0.110301 0.35203  0.0996330769231
 H1 0.660848 0.994559 0.7866  0.0996330769231
 H1 0.761161 0.770175 0.66739  0.0996330769231
 H1 0.747829 0.059648 0.61260  0.0996330769231
 H1 0.677634 0.672783 0.71741  0.0996330769231
 H1 0.676352 0.582955 0.89396  0.0996330769231
 H1 0.699105 0.758636 0.92494  0.0996330769231
 H1 0.715903 0.88998 0.85208  0.0996330769231
 C1 0.852468 0.312712 0.78518  0.700628076923
 C2 0.960334 0.296205 0.79802  -0.0899194230769
 C3 0.030739 0.31113 0.75496  -0.0594169230769
 C2 0.130445 0.290983 0.76549  -0.0899194230769
 C4 0.154532 0.257576 0.82091  0.162963076923
 C4 0.991727 0.264029 0.85216  0.162963076923
 C2 0.20802 0.302036 0.72114  -0.0899194230769
 C3 0.306593 0.315701 0.7374  -0.0594169230769
 C2 0.38166 0.32235 0.69642  -0.0899194230769
 C3 0.358232 0.317883 0.63764  -0.0594169230769
 C3 0.260385 0.305222 0.62075  -0.0594169230769
 C3 0.185915 0.29661 0.66195  -0.0594169230769
 C1 0.486844 0.331124 0.7160  0.700628076923
 C1 0.147557 0.687264 0.28514  0.700628076923
 C2 0.03967 0.703719 0.29797  -0.0899194230769
 C3 0.969352 0.688816 0.25490  -0.0594169230769
 C2 0.869629 0.70899 0.26544  -0.0899194230769
 C4 0.845441 0.742351 0.32089  0.162963076923
 C4 0.008187 0.735868 0.35213  0.162963076923
 C2 0.792134 0.697953 0.22109  -0.0899194230769
 C3 0.693525 0.684315 0.23740  -0.0594169230769
 C2 0.61853 0.677704 0.19637  -0.0899194230769
 C3 0.642071 0.682158 0.13758  -0.0594169230769
 C3 0.739954 0.694808 0.12070  -0.0594169230769
 C3 0.814347 0.703415 0.16190  -0.0594169230769
 C1 0.513312 0.668921 0.21596  0.700628076923
 C1 0.187173 0.352412 0.03516  0.700628076923
 C2 0.203606 0.460292 0.04801  -0.0899194230769
 C3 0.188576 0.530654 0.00498  -0.0594169230769
 C2 0.208694 0.630378 0.01552  -0.0899194230769
 C4 0.242146 0.654559 0.07093  0.162963076923
 C4 0.235841 0.491764 0.10214  0.162963076923
 C2 0.19766 0.707856 0.97119  -0.0899194230769
 C3 0.184035 0.806447 0.98750  -0.0594169230769
 C2 0.177471 0.881423 0.94646  -0.0899194230769
 C3 0.18196 0.857884 0.8876  -0.0594169230769
 C3 0.194574 0.760015 0.87080  -0.0594169230769
 C3 0.203088 0.685632 0.91200  -0.0594169230769
 C1 0.168825 0.98664 0.96604  0.700628076923
 C1 0.812759 0.647552 0.53516  0.700628076923
 C2 0.796415 0.539679 0.54802  -0.0899194230769
 C3 0.811419 0.46927 0.50496  -0.0594169230769
 C2 0.791369 0.369551 0.51551  -0.0899194230769
 C4 0.758006 0.345426 0.57096  0.162963076923
 C4 0.764279 0.508262 0.60218  0.162963076923
 C2 0.802397 0.291996 0.47115  -0.0899194230769
 C3 0.816003 0.193436 0.48747  -0.0594169230769
 C2 0.822532 0.118377 0.44643  -0.0899194230769
 C3 0.818046 0.141797 0.38765  -0.0594169230769
 C3 0.805459 0.239634 0.37077  -0.0594169230769
 C3 0.796958 0.314102 0.41197  -0.0594169230769
 C1 0.831169 0.013203 0.46601  0.700628076923
 C1 0.647536 0.812731 0.46485  0.700628076923
 C2 0.539657 0.796273 0.45202  -0.0899194230769
 C3 0.469235 0.811189 0.49509  -0.0594169230769
 C2 0.369503 0.791142 0.4845  -0.0899194230769
 C4 0.345397 0.757753 0.42910  0.162963076923
 C4 0.508235 0.764178 0.39785  0.162963076923
 C2 0.291934 0.802116 0.52891  -0.0899194230769
 C3 0.193375 0.815811 0.51259  -0.0594169230769
 C2 0.1183 0.822414 0.55362  -0.0899194230769
 C3 0.141716 0.81793 0.61241  -0.0594169230769
 C3 0.239553 0.805253 0.62929  -0.0594169230769
 C3 0.314033 0.796697 0.588  -0.0594169230769
 C1 0.013123 0.831132 0.53404  0.700628076923
 C1 0.352396 0.187234 0.96486  0.700628076923
 C2 0.460277 0.203763 0.95203  -0.0899194230769
 C3 0.530634 0.188831 0.99508  -0.0594169230769
 C2 0.630367 0.20899 0.98455  -0.0899194230769
 C4 0.654551 0.242415 0.92912  0.162963076923
 C4 0.491766 0.235962 0.89789  0.162963076923
 C2 0.707855 0.197983 0.02888  -0.0899194230769
 C3 0.806449 0.184274 0.01257  -0.0594169230769
 C2 0.881432 0.177635 0.05360  -0.0899194230769
 C3 0.85788 0.182124 0.11239  -0.0594169230769
 C3 0.760006 0.194835 0.12927  -0.0594169230769
 C3 0.68562 0.203399 0.08807  -0.0594169230769
 C1 0.986654 0.168896 0.03401  0.700628076923
 C1 0.312788 0.852467 0.21482  0.700628076923
 C2 0.296351 0.960332 0.20198  -0.0899194230769
 C3 0.311363 0.030758 0.24502  -0.0594169230769
 C2 0.291277 0.130462 0.23448  -0.0899194230769
 C4 0.257812 0.154546 0.17907  0.162963076923
 C4 0.264125 0.991723 0.14785  0.162963076923
 C2 0.30232 0.208015 0.2788  -0.0899194230769
 C3 0.315916 0.306587 0.26252  -0.0594169230769
 C2 0.322462 0.381641 0.30355  -0.0899194230769
 C3 0.318021 0.358198 0.36234  -0.0594169230769
 C3 0.305444 0.260351 0.3792  -0.0594169230769
 C3 0.2969 0.185893 0.3380  -0.0594169230769
 C1 0.331173 0.486823 0.28398  0.700628076923
 C1 0.687178 0.147578 0.71486  0.700628076923
 C2 0.70354 0.0397 0.70202  -0.0899194230769
 C3 0.688537 0.969359 0.74508  -0.0594169230769
 C2 0.70864 0.869641 0.7345  -0.0899194230769
 C4 0.742053 0.845459 0.67909  0.162963076923
 C4 0.735713 0.008223 0.64786  0.162963076923
 C2 0.697636 0.792154 0.77889  -0.0899194230769
 C3 0.684039 0.693556 0.76258  -0.0594169230769
 C2 0.677506 0.618562 0.80361  -0.0899194230769
 C3 0.681962 0.642094 0.86240  -0.0594169230769
 C3 0.69455 0.739969 0.87928  -0.0594169230769
 C3 0.703057 0.81437 0.83808  -0.0594169230769
 C1 0.668887 0.513348 0.78403  0.700628076923
 N1 0.087593 0.246023 0.86325  -0.308846923077
 N1 0.912308 0.753875 0.36323  -0.308846923077
 N1 0.253797 0.587677 0.11324  -0.308846923077
 N1 0.746385 0.412352 0.61329  -0.308846923077
 N1 0.412319 0.74625 0.38674  -0.308846923077
 N1 0.587684 0.253972 0.886  -0.308846923077
 N1 0.246185 0.087613 0.13675  -0.308846923077
 N1 0.753653 0.912322 0.63676  -0.308846923077
 O1 0.790866 0.282764 0.82258  -0.598936923077
 O1 0.833252 0.353593 0.73724  -0.598936923077
 O1 0.502453 0.325343 0.7701  -0.598936923077
 O1 0.552017 0.341914 0.67710  -0.598936923077
 O1 0.209086 0.717246 0.32254  -0.598936923077
 O1 0.166846 0.646336 0.23718  -0.598936923077
 O1 0.497631 0.674766 0.27008  -0.598936923077
 O1 0.448193 0.658131 0.17707  -0.598936923077
 O1 0.21717 0.29089 0.07254  -0.598936923077
 O1 0.146304 0.333127 0.98723  -0.598936923077
 O1 0.174651 0.002318 0.02015  -0.598936923077
 O1 0.158066 0.051737 0.92715  -0.598936923077
 O1 0.782738 0.709104 0.5725  -0.598936923077
 O1 0.853602 0.666811 0.48718  -0.598936923077
 O1 0.825293 0.997595 0.52013  -0.598936923077
 O1 0.841935 0.948047 0.42711  -0.598936923077
 O1 0.709106 0.782732 0.42744  -0.598936923077
 O1 0.666793 0.853558 0.51283  -0.598936923077
 O1 0.997549 0.825316 0.47992  -0.598936923077
 O1 0.947982 0.841946 0.57294  -0.598936923077
 O1 0.290862 0.217187 0.92747  -0.598936923077
 O1 0.333122 0.146349 0.01279  -0.598936923077
 O1 0.00229 0.17466 0.97990  -0.598936923077
 O1 0.051733 0.158079 0.07289  -0.598936923077
 O1 0.28278 0.790886 0.1774  -0.598936923077
 O1 0.353634 0.833232 0.26277  -0.598936923077
 O1 0.325333 0.502451 0.2298  -0.598936923077
 O1 0.3419 0.551979 0.32289  -0.598936923077
 O1 0.717234 0.20909 0.67747  -0.598936923077
 O1 0.646295 0.166871 0.76283  -0.598936923077
 O1 0.67477 0.497676 0.72990  -0.598936923077
 O1 0.658117 0.448229 0.8229  -0.598936923077
