#======================================================================

# CRYSTAL DATA

#----------------------------------------------------------------------

data_VESTA_phase_1


_pd_phase_name                         MOF
_cell_length_a                         14.72100
_cell_length_b                         20.47600
_cell_length_c                         13.14200
_cell_angle_alpha                      89.99000
_cell_angle_beta                       89.92800
_cell_angle_gamma                      99.09400
_symmetry_space_group_name_H-M         "P 1"
_symmetry_Int_Tables_number            1

loop_
_symmetry_equiv_pos_as_xyz
   "x, y, z"

loop_
   _atom_site_label
   _atom_site_fract_x
   _atom_site_fract_y
   _atom_site_fract_z
 _atom_site_charge
 La1 0.076681 0.13885 0.91782  2.18826125
 La1 0.076685 0.638862 0.91782  2.18826125
 La1 0.576668 0.13885 0.91782  2.18826125
 La1 0.576672 0.638862 0.91782  2.18826125
 La1 0.423109 0.111188 0.4178  2.18826125
 La1 0.423114 0.6112 0.41788  2.18826125
 La1 0.923097 0.111188 0.4178  2.18826125
 La1 0.923101 0.611201 0.4178  2.18826125
 La1 0.423306 0.36116 0.08217  2.18826125
 La1 0.42331 0.861172 0.08217  2.18826125
 La1 0.923292 0.361161 0.08217  2.18826125
 La1 0.923297 0.861173 0.08217  2.18826125
 La1 0.076877 0.388822 0.58211  2.18826125
 La1 0.076881 0.888834 0.58211  2.18826125
 La1 0.576865 0.388822 0.58211  2.18826125
 La1 0.576869 0.888835 0.58211  2.18826125
 P1 0.393671 0.040783 0.06651  1.54055125
 P1 0.393675 0.540795 0.06651  1.54055125
 P1 0.893658 0.040784 0.06651  1.54055125
 P1 0.893662 0.540796 0.06651  1.54055125
 P1 0.106373 0.20918 0.56529  1.54055125
 P1 0.106377 0.709192 0.56529  1.54055125
 P1 0.60636 0.20918 0.56529  1.54055125
 P1 0.606364 0.709192 0.56529  1.54055125
 P1 0.106316 0.459227 0.93348  1.54055125
 P1 0.10632 0.959239 0.93348  1.54055125
 P1 0.606303 0.459228 0.93348  1.54055125
 P1 0.606307 0.95924 0.93348  1.54055125
 P1 0.393614 0.290831 0.43470  1.54055125
 P1 0.393618 0.790843 0.43470  1.54055125
 P1 0.8936 0.290831 0.43470  1.54055125
 P1 0.893605 0.790843 0.43470  1.54055125
 H1 0.285957 0.105462 0.05815  0.41335625
 H1 0.285961 0.605475 0.05815  0.41335625
 H1 0.785944 0.105463 0.05815  0.41335625
 H1 0.785948 0.605475 0.05815  0.41335625
 H1 0.459895 0.992869 0.2668  0.41335625
 H1 0.459899 0.492881 0.2668  0.41335625
 H1 0.959878 0.992869 0.2668  0.41335625
 H1 0.959883 0.492881 0.2668  0.41335625
 H2 0.044422 0.047408 0.14252  0.19033125
 H2 0.044426 0.54742 0.14252  0.19033125
 H2 0.54441 0.047408 0.14252  0.19033125
 H2 0.544415 0.54742 0.14252  0.19033125
 H1 0.214066 0.1445 0.55645  0.41335625
 H1 0.214071 0.644512 0.55645  0.41335625
 H1 0.714053 0.1445 0.55645  0.41335625
 H1 0.714058 0.644512 0.55645  0.41335625
 H1 0.040263 0.257127 0.76619  0.41335625
 H1 0.040268 0.757139 0.76619  0.41335625
 H1 0.540251 0.257127 0.76619  0.41335625
 H1 0.540256 0.757139 0.76619  0.41335625
 H2 0.455853 0.202767 0.64213  0.19033125
 H2 0.455858 0.70278 0.64213  0.19033125
 H2 0.955841 0.202766 0.64213  0.19033125
 H2 0.955845 0.702778 0.64213  0.19033125
 H1 0.214029 0.394547 0.94184  0.41335625
 H1 0.214034 0.894559 0.94184  0.41335625
 H1 0.714016 0.394548 0.94184  0.41335625
 H1 0.714021 0.89456 0.94184  0.41335625
 H1 0.040095 0.507142 0.73317  0.41335625
 H1 0.0401 0.0 0.73317  0.41335625
 H1 0.54008 0.507142 0.73317  0.41335625
 H1 0.540084 0.0 0.73317  0.41335625
 H2 0.455564 0.452603 0.85747  0.19033125
 H2 0.455568 0.952615 0.85747  0.19033125
 H2 0.955552 0.452603 0.85747  0.19033125
 H2 0.955556 0.952615 0.85747  0.19033125
 H1 0.28592 0.355511 0.44354  0.41335625
 H1 0.285925 0.855523 0.44354  0.41335625
 H1 0.785907 0.355511 0.44354  0.41335625
 H1 0.785911 0.855523 0.44354  0.41335625
 H1 0.459721 0.242883 0.23380  0.41335625
 H1 0.459726 0.742896 0.23380  0.41335625
 H1 0.959709 0.242884 0.23380  0.41335625
 H1 0.959714 0.742896 0.23380  0.41335625
 H2 0.044132 0.297245 0.3578  0.19033125
 H2 0.044137 0.797257 0.3578  0.19033125
 H2 0.54412 0.297243 0.35785  0.19033125
 H2 0.544124 0.797255 0.35785  0.19033125
 C1 0.481993 0.066902 0.16664  -0.38825875
 C1 0.481997 0.566915 0.16664  -0.38825875
 C1 0.98198 0.066903 0.16664  -0.38825875
 C1 0.981984 0.566915 0.16664  -0.38825875
 C2 0.50191 0.141714 0.16980  0.67865125
 C2 0.501915 0.641726 0.16980  0.67865125
 C2 0.0 0.141714 0.16980  0.67865125
 C2 0.0 0.641727 0.16980  0.67865125
 C2 0.223486 0.277716 0.9817  0.67865125
 C2 0.22349 0.777728 0.9817  0.67865125
 C2 0.723473 0.277716 0.9817  0.67865125
 C2 0.723477 0.777728 0.9817  0.67865125
 C1 0.018209 0.183156 0.66603  -0.38825875
 C1 0.018213 0.683169 0.66603  -0.38825875
 C1 0.518195 0.183157 0.66603  -0.38825875
 C1 0.5182 0.683169 0.66603  -0.38825875
 C2 0.997997 0.108373 0.66945  0.67865125
 C2 0.998001 0.608385 0.66945  0.67865125
 C2 0.497982 0.108374 0.66945  0.67865125
 C2 0.497986 0.608386 0.66945  0.67865125
 C2 0.276553 0.472299 0.48181  0.67865125
 C2 0.276557 0.972311 0.48181  0.67865125
 C2 0.77654 0.472299 0.48181  0.67865125
 C2 0.776545 0.972311 0.48181  0.67865125
 C1 0.017994 0.433108 0.83335  -0.38825875
 C1 0.017998 0.93312 0.83335  -0.38825875
 C1 0.51798 0.433108 0.83335  -0.38825875
 C1 0.517985 0.933121 0.83335  -0.38825875
 C2 0.998075 0.358296 0.83019  0.67865125
 C2 0.99808 0.858309 0.83019  0.67865125
 C2 0.498063 0.358297 0.83019  0.67865125
 C2 0.498067 0.858309 0.83019  0.67865125
 C2 0.2765 0.222294 0.01826  0.67865125
 C2 0.276504 0.722306 0.01826  0.67865125
 C2 0.776486 0.222295 0.01826  0.67865125
 C2 0.776491 0.722307 0.01826  0.67865125
 C1 0.481778 0.316854 0.33396  -0.38825875
 C1 0.481782 0.816866 0.33396  -0.38825875
 C1 0.981764 0.316854 0.33396  -0.38825875
 C1 0.981768 0.816866 0.33396  -0.38825875
 C2 0.501991 0.391637 0.33054  0.67865125
 C2 0.501996 0.891649 0.33054  0.67865125
 C2 0.0 0.391638 0.33054  0.67865125
 C2 0.0 0.89165 0.33054  0.67865125
 C2 0.223433 0.027712 0.51818  0.67865125
 C2 0.223437 0.527724 0.51818  0.67865125
 C2 0.72342 0.027712 0.51818  0.67865125
 C2 0.723425 0.527724 0.51818  0.67865125
 O1 0.305109 0.069083 0.10181  -0.68314875
 O1 0.305114 0.569095 0.10181  -0.68314875
 O1 0.805096 0.069083 0.10181  -0.68314875
 O1 0.805101 0.569095 0.10181  -0.68314875
 O2 0.433776 0.072377 0.96779  -0.90267875
 O2 0.433781 0.57239 0.96779  -0.90267875
 O2 0.933764 0.072378 0.96779  -0.90267875
 O2 0.933768 0.57239 0.96779  -0.90267875
 O2 0.37412 0.465604 0.06999  -0.90267875
 O2 0.374124 0.965616 0.06999  -0.90267875
 O2 0.874107 0.465605 0.06999  -0.90267875
 O2 0.874111 0.965617 0.06999  -0.90267875
 O3 0.45331 0.041892 0.26498  -0.57869875
 O3 0.453315 0.541904 0.26498  -0.57869875
 O3 0.953296 0.041892 0.26498  -0.57869875
 O3 0.9533 0.541905 0.26498  -0.57869875
 O4 0.04214 0.172607 0.09518  -0.66192375
 O4 0.042144 0.672619 0.09518  -0.66192375
 O4 0.542126 0.172607 0.09518  -0.66192375
 O4 0.542131 0.672619 0.09518  -0.66192375
 O4 0.472923 0.169255 0.24853  -0.66192375
 O4 0.472927 0.669267 0.24853  -0.66192375
 O4 0.972911 0.169255 0.24853  -0.66192375
 O4 0.972915 0.669267 0.24853  -0.66192375
 O4 0.14814 0.260874 0.93697  -0.66192375
 O4 0.148145 0.760886 0.93697  -0.66192375
 O4 0.648127 0.260875 0.93697  -0.66192375
 O4 0.648132 0.760887 0.93697  -0.66192375
 O4 0.261729 0.337124 0.  -0.66192375
 O4 0.261733 0.837136 0.  -0.66192375
 O4 0.761716 0.337125 0.  -0.66192375
 O4 0.76172 0.837137 0.  -0.66192375
 O1 0.195027 0.180967 0.60008  -0.68314875
 O1 0.195032 0.680979 0.60008  -0.68314875
 O1 0.695014 0.180967 0.60008  -0.68314875
 O1 0.695019 0.680979 0.60008  -0.68314875
 O2 0.066217 0.177584 0.46671  -0.90267875
 O2 0.066221 0.677596 0.46671  -0.90267875
 O2 0.566204 0.177584 0.46671  -0.90267875
 O2 0.566208 0.677596 0.46671  -0.90267875
 O2 0.125788 0.284368 0.56855  -0.90267875
 O2 0.125793 0.784381 0.56855  -0.90267875
 O2 0.625775 0.284368 0.56855  -0.90267875
 O2 0.62578 0.78438 0.56855  -0.90267875
 O3 0.046991 0.20814 0.76432  -0.57869875
 O3 0.046995 0.708152 0.76432  -0.57869875
 O3 0.546978 0.20814 0.76432  -0.57869875
 O3 0.546983 0.708153 0.76432  -0.57869875
 O4 0.457336 0.077494 0.59518  -0.66192375
 O4 0.457341 0.577506 0.59518  -0.66192375
 O4 0.957325 0.077493 0.59518  -0.66192375
 O4 0.95733 0.577505 0.59518  -0.66192375
 O4 0.027047 0.080796 0.74800  -0.66192375
 O4 0.027051 0.580808 0.74800  -0.66192375
 O4 0.527031 0.080796 0.74800  -0.66192375
 O4 0.527036 0.580808 0.74800  -0.66192375
 O4 0.351451 0.489013 0.43591  -0.66192375
 O4 0.351457 0.989025 0.43591  -0.66192375
 O4 0.851439 0.489013 0.43591  -0.66192375
 O4 0.851443 0.989025 0.43591  -0.66192375
 O4 0.238704 0.412959 0.50195  -0.66192375
 O4 0.23871 0.912971 0.50195  -0.66192375
 O4 0.738692 0.412959 0.50195  -0.66192375
 O4 0.738696 0.912971 0.50195  -0.66192375
 O1 0.194877 0.430927 0.89818  -0.68314875
 O1 0.194881 0.930939 0.89818  -0.68314875
 O1 0.694864 0.430928 0.89818  -0.68314875
 O1 0.694869 0.93094 0.89818  -0.68314875
 O2 0.066209 0.427633 0.03220  -0.90267875
 O2 0.066213 0.927645 0.03220  -0.90267875
 O2 0.566196 0.427633 0.03220  -0.90267875
 O2 0.566201 0.927645 0.03220  -0.90267875
 O2 0.125867 0.034406 0.92999  -0.90267875
 O2 0.125871 0.534418 0.92999  -0.90267875
 O2 0.625854 0.034406 0.92999  -0.90267875
 O2 0.625858 0.534418 0.92999  -0.90267875
 O3 0.046677 0.458118 0.73500  -0.57869875
 O3 0.046682 0.95813 0.73500  -0.57869875
 O3 0.546663 0.458119 0.73500  -0.57869875
 O3 0.546668 0.958131 0.73500  -0.57869875
 O4 0.457845 0.327404 0.90480  -0.66192375
 O4 0.45785 0.827417 0.90480  -0.66192375
 O4 0.957832 0.327404 0.9048  -0.66192375
 O4 0.957837 0.827417 0.90480  -0.66192375
 O4 0.027063 0.330756 0.75146  -0.66192375
 O4 0.027067 0.830768 0.75146  -0.66192375
 O4 0.527051 0.330756 0.75146  -0.66192375
 O4 0.527055 0.830768 0.75146  -0.66192375
 O4 0.351845 0.239136 0.06302  -0.66192375
 O4 0.35185 0.739148 0.06302  -0.66192375
 O4 0.851832 0.239137 0.06302  -0.66192375
 O4 0.851837 0.739149 0.06302  -0.66192375
 O4 0.238257 0.162886 0.99947  -0.66192375
 O4 0.238261 0.662898 0.99947  -0.66192375
 O4 0.738244 0.162887 0.99947  -0.66192375
 O4 0.738248 0.662899 0.99947  -0.66192375
 O1 0.304959 0.319044 0.39991  -0.68314875
 O1 0.304963 0.819056 0.39991  -0.68314875
 O1 0.804945 0.319044 0.39991  -0.68314875
 O1 0.80495 0.819056 0.39991  -0.68314875
 O2 0.433769 0.322427 0.53328  -0.90267875
 O2 0.433774 0.822439 0.53328  -0.90267875
 O2 0.933756 0.322427 0.53328  -0.90267875
 O2 0.933761 0.822439 0.53328  -0.90267875
 O2 0.374199 0.215642 0.43144  -0.90267875
 O2 0.374203 0.715654 0.43144  -0.90267875
 O2 0.874186 0.215642 0.43144  -0.90267875
 O2 0.87419 0.715654 0.43144  -0.90267875
 O3 0.452994 0.29187 0.23567  -0.57869875
 O3 0.452998 0.791882 0.23567  -0.57869875
 O3 0.952981 0.291871 0.23567  -0.57869875
 O3 0.952986 0.791883 0.23567  -0.57869875
 O4 0.042648 0.422518 0.40481  -0.66192375
 O4 0.042652 0.92253 0.40481  -0.66192375
 O4 0.542637 0.422517 0.40481  -0.66192375
 O4 0.542641 0.922529 0.4048  -0.66192375
 O4 0.472943 0.419214 0.2519  -0.66192375
 O4 0.472947 0.919226 0.2519  -0.66192375
 O4 0.972927 0.419215 0.25199  -0.66192375
 O4 0.972931 0.919227 0.25199  -0.66192375
 O4 0.148533 0.010998 0.56408  -0.66192375
 O4 0.148539 0.51101 0.56408  -0.66192375
 O4 0.648522 0.010998 0.56408  -0.66192375
 O4 0.648526 0.51101 0.56408  -0.66192375
 O4 0.261281 0.087052 0.49804  -0.66192375
 O4 0.261286 0.587064 0.49804  -0.66192375
 O4 0.761269 0.087052 0.49804  -0.66192375
 O4 0.761274 0.587064 0.49804  -0.66192375
