#======================================================================

# CRYSTAL DATA

#----------------------------------------------------------------------

data_VESTA_phase_1


_pd_phase_name                         MOF
_cell_length_a                         19.05200
_cell_length_b                         19.05200
_cell_length_c                         17.48900
_cell_angle_alpha                      90.00000
_cell_angle_beta                       90.00000
_cell_angle_gamma                      119.99300
_symmetry_space_group_name_H-M         "P 1"
_symmetry_Int_Tables_number            1

loop_
_symmetry_equiv_pos_as_xyz
   "x, y, z"

loop_
   _atom_site_label
   _atom_site_fract_x
   _atom_site_fract_y
   _atom_site_fract_z
 _atom_site_charge
 La1 0.166666 0.333319 0.75002  2.25931426829
 La1 0.166678 0.833331 0.75002  2.25931426829
 La1 0.666659 0.33332 0.75003  2.25931426829
 La1 0.666669 0.833324 0.75003  2.25931426829
 La1 0.333321 0.166665 0.24997  2.25931426829
 La1 0.333328 0.666661 0.24997  2.25931426829
 La1 0.833316 0.166668 0.2499  2.25931426829
 La1 0.833323 0.666664 0.24997  2.25931426829
 La2 0.999988 0.999994 2e-0  2.04457926829
 La2 0.999996 0.499995 2e-0  2.04457926829
 La2 0.499995 1e-06 3e-0  2.04457926829
 La2 0.499998 0.499996 3e-0  2.04457926829
 La2 0.999997 0.999998 0.49999  2.04457926829
 La2 0.999996 0.499987 0.50000  2.04457926829
 La2 0.499989 0.999995 0.  2.04457926829
 La2 0.499994 0.499995 0.  2.04457926829
 H1 0.241937 0.326681 0.97242  0.103664268293
 H1 0.241939 0.826668 0.97240  0.103664268293
 H1 0.741928 0.326662 0.9724  0.103664268293
 H1 0.741933 0.826664 0.97241  0.103664268293
 H1 0.289687 0.289743 0.90945  0.103664268293
 H1 0.289708 0.789747 0.90944  0.103664268293
 H1 0.789699 0.289753 0.90943  0.103664268293
 H1 0.789702 0.789748 0.90944  0.103664268293
 H1 0.08474 0.258059 0.97243  0.103664268293
 H1 0.084717 0.758066 0.97240  0.103664268293
 H1 0.584726 0.25806 0.97243  0.103664268293
 H1 0.584728 0.75806 0.97242  0.103664268293
 H1 7.1e-05 0.210333 0.90946  0.103664268293
 H1 4.8e-05 0.71029 0.90943  0.103664268293
 H1 0.500065 0.210328 0.90945  0.103664268293
 H1 0.500054 0.710311 0.90945  0.103664268293
 H1 0.17334 0.415262 0.97242  0.103664268293
 H1 0.173365 0.915281 0.97240  0.103664268293
 H1 0.673334 0.415259 0.97242  0.103664268293
 H1 0.673344 0.915266 0.9724  0.103664268293
 H1 0.210258 0.499942 0.90945  0.103664268293
 H1 0.210251 0.999952 0.90942  0.103664268293
 H1 0.71025 0.499932 0.90944  0.103664268293
 H1 0.710252 0.999943 0.90944  0.103664268293
 H1 0.241934 0.326654 0.52760  0.103664268293
 H1 0.241938 0.826661 0.52760  0.103664268293
 H1 0.74193 0.326654 0.52759  0.103664268293
 H1 0.741937 0.826669 0.52759  0.103664268293
 H1 0.289716 0.289753 0.59057  0.103664268293
 H1 0.28972 0.789748 0.59056  0.103664268293
 H1 0.7897 0.289748 0.5905  0.103664268293
 H1 0.789706 0.789746 0.59055  0.103664268293
 H1 0.084717 0.258061 0.5275  0.103664268293
 H1 0.084727 0.75806 0.5275  0.103664268293
 H1 0.58471 0.258057 0.52757  0.103664268293
 H1 0.584728 0.758064 0.52757  0.103664268293
 H1 4.7e-05 0.210301 0.59056  0.103664268293
 H1 5.6e-05 0.710304 0.59055  0.103664268293
 H1 0.500048 0.210307 0.5905  0.103664268293
 H1 0.500058 0.710314 0.59055  0.103664268293
 H1 0.17337 0.41528 0.52761  0.103664268293
 H1 0.173332 0.91525 0.52755  0.103664268293
 H1 0.673351 0.415274 0.5275  0.103664268293
 H1 0.673359 0.915277 0.52759  0.103664268293
 H1 0.210243 0.499966 0.59058  0.103664268293
 H1 0.210263 0.999919 0.59054  0.103664268293
 H1 0.710244 0.499949 0.5905  0.103664268293
 H1 0.710247 0.999951 0.59057  0.103664268293
 H1 0.415269 0.173355 0.02759  0.103664268293
 H1 0.41529 0.673364 0.02759  0.103664268293
 H1 0.91527 0.173359 0.0275  0.103664268293
 H1 0.915271 0.673348 0.02757  0.103664268293
 H1 0.499948 0.210244 0.09056  0.103664268293
 H1 0.499952 0.710239 0.09057  0.103664268293
 H1 0.999942 0.210243 0.0905  0.103664268293
 H1 0.999936 0.710248 0.09055  0.103664268293
 H1 0.326657 0.241931 0.02759  0.103664268293
 H1 0.326669 0.741932 0.02757  0.103664268293
 H1 0.826686 0.241935 0.0275  0.103664268293
 H1 0.826676 0.74193 0.02757  0.103664268293
 H1 0.289756 0.289708 0.0905  0.103664268293
 H1 0.289755 0.789692 0.09055  0.103664268293
 H1 0.789742 0.289674 0.09054  0.103664268293
 H1 0.78975 0.789682 0.09055  0.103664268293
 H1 0.258058 0.084717 0.02757  0.103664268293
 H1 0.258068 0.584714 0.02757  0.103664268293
 H1 0.758056 0.084708 0.02758  0.103664268293
 H1 0.758067 0.584715 0.02758  0.103664268293
 H1 0.210305 5.4e-05 0.09055  0.103664268293
 H1 0.21031 0.500057 0.09056  0.103664268293
 H1 0.710289 4.8e-05 0.09056  0.103664268293
 H1 0.710302 0.500051 0.09056  0.103664268293
 H1 0.41528 0.173361 0.47240  0.103664268293
 H1 0.415263 0.673337 0.47242  0.103664268293
 H1 0.915266 0.173349 0.47242  0.103664268293
 H1 0.915259 0.673334 0.47242  0.103664268293
 H1 0.499961 0.210244 0.40943  0.103664268293
 H1 0.499934 0.710249 0.40944  0.103664268293
 H1 0.999937 0.210251 0.40944  0.103664268293
 H1 0.999928 0.710243 0.40944  0.103664268293
 H1 0.326686 0.241936 0.47243  0.103664268293
 H1 0.326663 0.741933 0.47242  0.103664268293
 H1 0.826659 0.241931 0.47240  0.103664268293
 H1 0.826657 0.741935 0.47241  0.103664268293
 H1 0.289743 0.289678 0.40945  0.103664268293
 H1 0.28975 0.789698 0.40944  0.103664268293
 H1 0.789742 0.289703 0.40944  0.103664268293
 H1 0.789755 0.789705 0.40943  0.103664268293
 H1 0.258066 0.084725 0.47241  0.103664268293
 H1 0.25806 0.584752 0.47247  0.103664268293
 H1 0.758056 0.084723 0.47242  0.103664268293
 H1 0.758061 0.584724 0.47243  0.103664268293
 H1 0.2103 5e-05 0.40944  0.103664268293
 H1 0.210373 0.500096 0.40947  0.103664268293
 H1 0.710306 5.8e-05 0.40944  0.103664268293
 H1 0.710319 0.50006 0.40945  0.103664268293
 C1 0.325041 0.415849 0.89283  0.755097601626
 C1 0.325036 0.91586 0.89284  0.755097601626
 C1 0.825034 0.415853 0.89283  0.755097601626
 C1 0.825032 0.915854 0.89284  0.755097601626
 C2 0.299823 0.342252 0.9442  -0.0879357317073
 C2 0.29983 0.84225 0.94427  -0.0879357317073
 C2 0.79982 0.342252 0.94428  -0.0879357317073
 C2 0.799823 0.842249 0.94428  -0.0879357317073
 C1 0.090808 0.174953 0.89283  0.755097601626
 C1 0.090841 0.674966 0.8928  0.755097601626
 C1 0.590798 0.174952 0.89283  0.755097601626
 C1 0.590827 0.674961 0.89284  0.755097601626
 C2 0.042436 0.200181 0.94429  -0.0879357317073
 C2 0.04243 0.700172 0.94427  -0.0879357317073
 C2 0.54243 0.200181 0.94429  -0.0879357317073
 C2 0.542432 0.700177 0.94428  -0.0879357317073
 C1 0.08415 0.409182 0.89284  0.755097601626
 C1 0.084145 0.909168 0.89284  0.755097601626
 C1 0.584149 0.409194 0.89283  0.755097601626
 C1 0.584146 0.909181 0.8928  0.755097601626
 C2 0.157754 0.457565 0.9442  -0.0879357317073
 C2 0.157759 0.95757 0.9442  -0.0879357317073
 C2 0.657747 0.457558 0.94428  -0.0879357317073
 C2 0.657751 0.957562 0.94427  -0.0879357317073
 C1 0.325032 0.415866 0.6071  0.755097601626
 C1 0.325036 0.915865 0.6071  0.755097601626
 C1 0.82503 0.415857 0.60715  0.755097601626
 C1 0.825037 0.915864 0.6071  0.755097601626
 C2 0.299829 0.342249 0.55573  -0.0879357317073
 C2 0.299831 0.842249 0.55573  -0.0879357317073
 C2 0.799821 0.342246 0.55572  -0.0879357317073
 C2 0.799826 0.84225 0.55572  -0.0879357317073
 C1 0.090832 0.174962 0.6071  0.755097601626
 C1 0.090828 0.674955 0.60715  0.755097601626
 C1 0.590817 0.174956 0.60715  0.755097601626
 C1 0.590819 0.674953 0.60715  0.755097601626
 C2 0.042424 0.200172 0.55572  -0.0879357317073
 C2 0.042434 0.700175 0.55572  -0.0879357317073
 C2 0.542421 0.200173 0.55572  -0.0879357317073
 C2 0.542435 0.700182 0.55572  -0.0879357317073
 C1 0.084132 0.409164 0.60715  0.755097601626
 C1 0.084165 0.909215 0.60718  0.755097601626
 C1 0.584134 0.409177 0.60715  0.755097601626
 C1 0.584142 0.90918 0.60715  0.755097601626
 C2 0.157755 0.457568 0.55574  -0.0879357317073
 C2 0.157754 0.957551 0.55571  -0.0879357317073
 C2 0.65775 0.457564 0.55573  -0.0879357317073
 C2 0.657754 0.957568 0.55573  -0.0879357317073
 C1 0.409174 0.084143 0.1071  0.755097601626
 C1 0.409172 0.58414 0.10715  0.755097601626
 C1 0.909173 0.084146 0.10716  0.755097601626
 C1 0.909183 0.584149 0.10715  0.755097601626
 C2 0.457563 0.157751 0.05572  -0.0879357317073
 C2 0.457572 0.65775 0.0557  -0.0879357317073
 C2 0.957558 0.157752 0.05572  -0.0879357317073
 C2 0.957564 0.657751 0.05571  -0.0879357317073
 C1 0.415861 0.325028 0.10715  0.755097601626
 C1 0.415856 0.825035 0.10716  0.755097601626
 C1 0.915848 0.325041 0.10716  0.755097601626
 C1 0.915849 0.825041 0.10716  0.755097601626
 C2 0.342251 0.299825 0.05572  -0.0879357317073
 C2 0.342256 0.799818 0.05571  -0.0879357317073
 C2 0.842252 0.299817 0.05570  -0.0879357317073
 C2 0.842255 0.799815 0.05571  -0.0879357317073
 C1 0.174966 0.090831 0.10715  0.755097601626
 C1 0.174966 0.590825 0.10715  0.755097601626
 C1 0.674964 0.090835 0.10715  0.755097601626
 C1 0.674966 0.590826 0.10715  0.755097601626
 C2 0.200171 0.042426 0.05571  -0.0879357317073
 C2 0.200182 0.54243 0.05572  -0.0879357317073
 C2 0.700166 0.042425 0.05572  -0.0879357317073
 C2 0.700177 0.542428 0.0557  -0.0879357317073
 C1 0.409166 0.084136 0.39285  0.755097601626
 C1 0.409207 0.584152 0.39282  0.755097601626
 C1 0.909183 0.084146 0.39284  0.755097601626
 C1 0.909196 0.584143 0.39283  0.755097601626
 C2 0.457569 0.157753 0.44426  -0.0879357317073
 C2 0.45756 0.657747 0.44428  -0.0879357317073
 C2 0.957558 0.157753 0.44427  -0.0879357317073
 C2 0.957555 0.657743 0.44428  -0.0879357317073
 C1 0.415852 0.325048 0.39283  0.755097601626
 C1 0.415857 0.825035 0.39284  0.755097601626
 C1 0.915857 0.325031 0.39285  0.755097601626
 C1 0.915862 0.825031 0.39285  0.755097601626
 C2 0.342253 0.299816 0.44429  -0.0879357317073
 C2 0.342251 0.799817 0.44428  -0.0879357317073
 C2 0.842243 0.299822 0.4442  -0.0879357317073
 C2 0.842251 0.799825 0.44427  -0.0879357317073
 C1 0.174951 0.090817 0.39284  0.755097601626
 C1 0.174939 0.590772 0.39282  0.755097601626
 C1 0.674944 0.09081 0.3928  0.755097601626
 C1 0.674955 0.590811 0.39284  0.755097601626
 C2 0.200179 0.042434 0.4442  -0.0879357317073
 C2 0.200196 0.542445 0.44431  -0.0879357317073
 C2 0.70017 0.04243 0.44428  -0.0879357317073
 C2 0.700179 0.54243 0.4442  -0.0879357317073
 O1 0.27558 0.406612 0.83957  -0.713326565041
 O1 0.275588 0.906621 0.83957  -0.713326565041
 O1 0.775573 0.406618 0.83957  -0.713326565041
 O1 0.775579 0.906616 0.83957  -0.713326565041
 O1 0.390424 0.480068 0.90671  -0.713326565041
 O1 0.390433 0.980071 0.90671  -0.713326565041
 O1 0.890415 0.480073 0.90671  -0.713326565041
 O1 0.890423 0.980069 0.90671  -0.713326565041
 O1 0.131037 0.224418 0.83958  -0.713326565041
 O1 0.131053 0.72442 0.83958  -0.713326565041
 O1 0.631037 0.224424 0.83958  -0.713326565041
 O1 0.63104 0.724418 0.83958  -0.713326565041
 O1 0.089638 0.10956 0.90671  -0.713326565041
 O1 0.089654 0.609562 0.90671  -0.713326565041
 O1 0.589642 0.109567 0.90671  -0.713326565041
 O1 0.589644 0.609559 0.90671  -0.713326565041
 O1 0.0934 0.368969 0.83958  -0.713326565041
 O1 0.093395 0.868952 0.83958  -0.713326565041
 O1 0.593391 0.368962 0.83958  -0.713326565041
 O1 0.593394 0.868961 0.83958  -0.713326565041
 O1 0.01993 0.41036 0.90671  -0.713326565041
 O1 0.019924 0.910343 0.90672  -0.713326565041
 O1 0.519923 0.410355 0.90672  -0.713326565041
 O1 0.519923 0.910352 0.9067  -0.713326565041
 O1 0.275577 0.406624 0.66041  -0.713326565041
 O1 0.275589 0.906622 0.66042  -0.713326565041
 O1 0.775568 0.406618 0.66041  -0.713326565041
 O1 0.775582 0.90662 0.6604  -0.713326565041
 O1 0.390426 0.480078 0.59328  -0.713326565041
 O1 0.390437 0.980074 0.59328  -0.713326565041
 O1 0.890415 0.480075 0.59327  -0.713326565041
 O1 0.89043 0.980077 0.59328  -0.713326565041
 O1 0.131049 0.224419 0.66041  -0.713326565041
 O1 0.131045 0.724418 0.66041  -0.713326565041
 O1 0.631041 0.224421 0.66041  -0.713326565041
 O1 0.631046 0.724418 0.66041  -0.713326565041
 O1 0.089644 0.109557 0.59328  -0.713326565041
 O1 0.089651 0.609557 0.59328  -0.713326565041
 O1 0.589644 0.109561 0.59328  -0.713326565041
 O1 0.589646 0.609557 0.59328  -0.713326565041
 O1 0.09338 0.368953 0.66042  -0.713326565041
 O1 0.093401 0.86896 0.66041  -0.713326565041
 O1 0.593382 0.368954 0.66041  -0.713326565041
 O1 0.593389 0.868956 0.66041  -0.713326565041
 O1 0.019918 0.410356 0.59328  -0.713326565041
 O1 0.01993 0.910353 0.59327  -0.713326565041
 O1 0.519913 0.41035 0.59327  -0.713326565041
 O1 0.519919 0.910349 0.59327  -0.713326565041
 O1 0.368961 0.093389 0.16042  -0.713326565041
 O1 0.368955 0.593387 0.16041  -0.713326565041
 O1 0.868954 0.093393 0.16042  -0.713326565041
 O1 0.86896 0.593396 0.16041  -0.713326565041
 O1 0.410356 0.019924 0.09328  -0.713326565041
 O1 0.410348 0.51992 0.09328  -0.713326565041
 O1 0.910344 0.019923 0.09328  -0.713326565041
 O1 0.91035 0.519925 0.09327  -0.713326565041
 O1 0.406621 0.275576 0.16042  -0.713326565041
 O1 0.406622 0.775573 0.1604  -0.713326565041
 O1 0.906614 0.275584 0.16042  -0.713326565041
 O1 0.906619 0.775577 0.16042  -0.713326565041
 O1 0.480073 0.390422 0.09328  -0.713326565041
 O1 0.480076 0.890418 0.09328  -0.713326565041
 O1 0.980064 0.390429 0.09328  -0.713326565041
 O1 0.98007 0.890421 0.09328  -0.713326565041
 O1 0.224419 0.131041 0.16041  -0.713326565041
 O1 0.224428 0.631051 0.16041  -0.713326565041
 O1 0.724417 0.131046 0.16041  -0.713326565041
 O1 0.724422 0.631043 0.1604  -0.713326565041
 O1 0.109561 0.089645 0.0932  -0.713326565041
 O1 0.10957 0.589651 0.09328  -0.713326565041
 O1 0.609561 0.089651 0.0932  -0.713326565041
 O1 0.609565 0.589645 0.09329  -0.713326565041
 O1 0.368961 0.093391 0.33958  -0.713326565041
 O1 0.368967 0.593391 0.33958  -0.713326565041
 O1 0.868956 0.093394 0.33958  -0.713326565041
 O1 0.868957 0.593384 0.33958  -0.713326565041
 O1 0.410356 0.01992 0.40671  -0.713326565041
 O1 0.410359 0.519923 0.40672  -0.713326565041
 O1 0.910346 0.01992 0.40672  -0.713326565041
 O1 0.910351 0.519915 0.40672  -0.713326565041
 O1 0.406615 0.27558 0.33958  -0.713326565041
 O1 0.406614 0.775571 0.33958  -0.713326565041
 O1 0.906614 0.275581 0.33958  -0.713326565041
 O1 0.906621 0.775572 0.33958  -0.713326565041
 O1 0.480072 0.390429 0.40672  -0.713326565041
 O1 0.480077 0.890418 0.40672  -0.713326565041
 O1 0.980068 0.390428 0.40671  -0.713326565041
 O1 0.980079 0.890419 0.40672  -0.713326565041
 O1 0.224411 0.131041 0.33958  -0.713326565041
 O1 0.224428 0.631033 0.33959  -0.713326565041
 O1 0.724411 0.13104 0.33958  -0.713326565041
 O1 0.724421 0.631038 0.33958  -0.713326565041
 O1 0.10955 0.089636 0.40671  -0.713326565041
 O1 0.109568 0.589638 0.40672  -0.713326565041
 O1 0.609551 0.089641 0.40671  -0.713326565041
 O1 0.609563 0.589645 0.40671  -0.713326565041
 O2 0.361496 0.361494 3e-0  -0.330305731707
 O2 0.36149 0.861494 0.  -0.330305731707
 O2 0.861492 0.361492 0.99999  -0.330305731707
 O2 0.861489 0.861492 3e-0  -0.330305731707
 O2 0.0 0.138513 8e-0  -0.330305731707
 O2 1.1e-05 0.638512 3e-0  -0.330305731707
 O2 0.499986 0.138506 2e-0  -0.330305731707
 O2 0.500007 0.638515 0.  -0.330305731707
 O2 0.138506 0.999998 0.99999  -0.330305731707
 O2 0.138513 0.499992 3e-0  -0.330305731707
 O2 0.638503 0.999995 0.99999  -0.330305731707
 O2 0.638512 0.499999 0.  -0.330305731707
 O2 0.36149 0.361494 0.50000  -0.330305731707
 O2 0.361486 0.861489 0.49999  -0.330305731707
 O2 0.861491 0.361488 0.50000  -0.330305731707
 O2 0.86149 0.861495 0.49999  -0.330305731707
 O2 5e-06 0.138514 0.49999  -0.330305731707
 O2 1e-05 0.638513 0.49999  -0.330305731707
 O2 0.499991 0.138509 0.49999  -0.330305731707
 O2 0.500008 0.638518 0.49999  -0.330305731707
 O2 0.138518 7e-06 0.50000  -0.330305731707
 O2 0.138511 0.499981 0.50000  -0.330305731707
 O2 0.638501 0.999996 0.50000  -0.330305731707
 O2 0.638511 0.499993 0.50000  -0.330305731707
