#======================================================================

# CRYSTAL DATA

#----------------------------------------------------------------------

data_VESTA_phase_1


_pd_phase_name                         MOF
_cell_length_a                         18.28000
_cell_length_b                         14.29000
_cell_length_c                         15.32400
_cell_angle_alpha                      89.44300
_cell_angle_beta                       90.19500
_cell_angle_gamma                      107.34100
_symmetry_space_group_name_H-M         "P 1"
_symmetry_Int_Tables_number            1

loop_
_symmetry_equiv_pos_as_xyz
   "x, y, z"

loop_
   _atom_site_label
   _atom_site_fract_x
   _atom_site_fract_y
   _atom_site_fract_z
 _atom_site_charge
 Zn1 0.146122 0.337253 0.34101  1.08464772727
 Zn1 0.646124 0.337253 0.34101  1.08464772727
 Zn1 0.08813 0.135471 0.22600  1.08464772727
 Zn1 0.588131 0.135471 0.22600  1.08464772727
 Zn1 0.103904 0.160781 0.84099  1.08464772727
 Zn1 0.603905 0.160782 0.84099  1.08464772727
 Zn1 0.161978 0.365706 0.72596  1.08464772727
 Zn1 0.661979 0.365706 0.72596  1.08464772727
 Zn1 0.353867 0.662751 0.65900  1.08464772727
 Zn1 0.853868 0.662751 0.65900  1.08464772727
 Zn1 0.41186 0.864533 0.77401  1.08464772727
 Zn1 0.911861 0.864533 0.77401  1.08464772727
 Zn1 0.39608 0.839223 0.15902  1.08464772727
 Zn1 0.896082 0.839222 0.15902  1.08464772727
 Zn1 0.338009 0.634299 0.2740  1.08464772727
 Zn1 0.83801 0.634299 0.2740  1.08464772727
 H1 0.435463 0.404571 0.2964  0.0758652272727
 H1 0.935464 0.404571 0.29641  0.0758652272727
 H1 0.368053 0.090745 0.27909  0.0758652272727
 H1 0.868054 0.090745 0.27908  0.0758652272727
 H1 0.231399 0.087425 0.26953  0.0758652272727
 H1 0.731401 0.087426 0.26953  0.0758652272727
 H1 0.124999 0.404562 0.53351  0.0758652272727
 H1 0.624984 0.404544 0.53351  0.0758652272727
 H1 0.314632 0.094056 0.79668  0.0758652272727
 H1 0.814634 0.094056 0.79669  0.0758652272727
 H1 0.381834 0.408179 0.77854  0.0758652272727
 H1 0.881836 0.408179 0.77854  0.0758652272727
 H1 0.018449 0.411785 0.76890  0.0758652272727
 H1 0.51845 0.411785 0.76890  0.0758652272727
 H1 0.123499 0.093915 0.03673  0.0758652272727
 H1 0.623536 0.09395 0.03673  0.0758652272727
 H1 0.064527 0.595435 0.70360  0.0758652272727
 H1 0.564528 0.595435 0.70360  0.0758652272727
 H1 0.131938 0.909261 0.72092  0.0758652272727
 H1 0.63194 0.909261 0.72092  0.0758652272727
 H1 0.268591 0.91258 0.73048  0.0758652272727
 H1 0.768593 0.91258 0.73048  0.0758652272727
 H1 0.374983 0.595436 0.46651  0.0758652272727
 H1 0.874976 0.595427 0.46651  0.0758652272727
 H1 0.185352 0.905947 0.20333  0.0758652272727
 H1 0.685354 0.905947 0.20333  0.0758652272727
 H1 0.118149 0.591823 0.2214  0.0758652272727
 H1 0.61815 0.591823 0.22146  0.0758652272727
 H1 0.481534 0.588218 0.23110  0.0758652272727
 H1 0.981536 0.588219 0.23111  0.0758652272727
 H1 0.376422 0.906023 0.96328  0.0758652272727
 H1 0.876404 0.906004 0.96328  0.0758652272727
 C1 0.255338 0.243843 0.27804  0.460827727273
 C1 0.75534 0.243844 0.27804  0.460827727273
 C2 0.314198 0.335456 0.28492  -0.303312272727
 C2 0.8142 0.335457 0.28492  -0.303312272727
 C3 0.390705 0.334987 0.29085  -0.0521722727273
 C3 0.890707 0.334987 0.29084  -0.0521722727273
 C2 0.41087 0.248319 0.28976  -0.303312272727
 C2 0.910871 0.248318 0.28976  -0.303312272727
 C3 0.352549 0.158651 0.28050  -0.0521722727273
 C3 0.852551 0.158652 0.28049  -0.0521722727273
 C3 0.276661 0.156752 0.27480  -0.0521722727273
 C3 0.776663 0.156753 0.27480  -0.0521722727273
 C4 0.300047 0.43243 0.28512  0.747222727273
 C4 0.80005 0.43243 0.28512  0.747222727273
 C4 0.491828 0.250061 0.29751  0.747222727273
 C4 0.99183 0.250061 0.29751  0.747222727273
 C5 0.154002 0.346481 0.53476  0.673657727273
 C5 0.653998 0.346475 0.53476  0.673657727273
 C1 0.994695 0.255238 0.77777  0.460827727273
 C1 0.494696 0.255238 0.77777  0.460827727273
 C2 0.435854 0.163458 0.78487  -0.303312272727
 C2 0.935856 0.163458 0.78487  -0.303312272727
 C3 0.359337 0.163779 0.79093  -0.0521722727273
 C3 0.859339 0.163779 0.79093  -0.0521722727273
 C2 0.339066 0.250411 0.78957  -0.303312272727
 C2 0.839067 0.250411 0.78957  -0.303312272727
 C3 0.397361 0.340261 0.78012  -0.0521722727273
 C3 0.897363 0.340261 0.78012  -0.0521722727273
 C3 0.473247 0.342314 0.77431  -0.0521722727273
 C3 0.973249 0.342314 0.77431  -0.0521722727273
 C4 0.450027 0.066456 0.78519  0.747222727273
 C4 0.950028 0.066456 0.78519  0.747222727273
 C4 0.258089 0.248514 0.79742  0.747222727273
 C4 0.758091 0.248515 0.79742  0.747222727273
 C5 0.095545 0.153035 0.03548  0.673657727273
 C5 0.595557 0.153047 0.03548  0.673657727273
 C1 0.244651 0.756162 0.72197  0.460827727273
 C1 0.744653 0.756161 0.72197  0.460827727273
 C2 0.185792 0.664549 0.71509  -0.303312272727
 C2 0.685793 0.664549 0.71509  -0.303312272727
 C3 0.109285 0.665019 0.7091  -0.0521722727273
 C3 0.609286 0.665019 0.70916  -0.0521722727273
 C2 0.08912 0.751687 0.71025  -0.303312272727
 C2 0.589122 0.751687 0.71025  -0.303312272727
 C3 0.147441 0.841354 0.71951  -0.0521722727273
 C3 0.647443 0.841354 0.71951  -0.0521722727273
 C3 0.223329 0.843253 0.7252  -0.0521722727273
 C3 0.723331 0.843253 0.72521  -0.0521722727273
 C4 0.199941 0.567575 0.71489  0.747222727273
 C4 0.699943 0.567575 0.71489  0.747222727273
 C4 0.008162 0.749945 0.70250  0.747222727273
 C4 0.508163 0.749945 0.70250  0.747222727273
 C5 0.345985 0.653521 0.46525  0.673657727273
 C5 0.845984 0.653519 0.46525  0.673657727273
 C1 0.50529 0.744766 0.2222  0.460827727273
 C1 0.0 0.744766 0.22224  0.460827727273
 C2 0.064131 0.836546 0.21514  -0.303312272727
 C2 0.564133 0.836546 0.21515  -0.303312272727
 C3 0.140647 0.836224 0.20908  -0.0521722727273
 C3 0.640648 0.836223 0.20907  -0.0521722727273
 C2 0.160918 0.749592 0.21044  -0.303312272727
 C2 0.66092 0.749592 0.21044  -0.303312272727
 C3 0.102622 0.659741 0.21988  -0.0521722727273
 C3 0.602623 0.659741 0.21988  -0.0521722727273
 C3 0.026737 0.657689 0.2257  -0.0521722727273
 C3 0.526738 0.65769 0.22571  -0.0521722727273
 C4 0.049956 0.933546 0.21483  0.747222727273
 C4 0.549957 0.933546 0.21483  0.747222727273
 C4 0.241895 0.751488 0.20260  0.747222727273
 C4 0.741896 0.751488 0.20260  0.747222727273
 C5 0.404423 0.846948 0.9645  0.673657727273
 C5 0.904418 0.846942 0.96453  0.673657727273
 O1 0.180941 0.238592 0.27410  -0.639242272727
 O1 0.680942 0.238592 0.27410  -0.639242272727
 O2 0.235391 0.445347 0.30353  -0.616550606061
 O2 0.735392 0.445347 0.30353  -0.616550606061
 O2 0.357522 0.507381 0.26663  -0.616550606061
 O2 0.857523 0.507382 0.26662  -0.616550606061
 O2 0.042282 0.333538 0.31109  -0.616550606061
 O2 0.542284 0.333538 0.31109  -0.616550606061
 O2 0.507208 0.168682 0.29188  -0.616550606061
 O2 0.0 0.168683 0.29188  -0.616550606061
 O2 0.165382 0.308879 0.46342  -0.616550606061
 O2 0.665385 0.308878 0.46342  -0.616550606061
 O2 0.17483 0.320002 0.60744  -0.616550606061
 O2 0.674833 0.320002 0.60744  -0.616550606061
 O1 0.069104 0.260686 0.77366  -0.639242272727
 O1 0.569106 0.260686 0.77366  -0.639242272727
 O2 0.014696 0.053198 0.8037  -0.616550606061
 O2 0.514698 0.053198 0.8037  -0.616550606061
 O2 0.392576 0.991881 0.76665  -0.616550606061
 O2 0.892577 0.991881 0.76665  -0.616550606061
 O2 0.207688 0.164774 0.81129  -0.616550606061
 O2 0.70769 0.164775 0.81129  -0.616550606061
 O2 0.242653 0.329963 0.79166  -0.616550606061
 O2 0.742655 0.329963 0.79166  -0.616550606061
 O2 0.084476 0.189374 0.96271  -0.616550606061
 O2 0.584476 0.189373 0.96271  -0.616550606061
 O2 0.075528 0.181904 0.10693  -0.616550606061
 O2 0.575527 0.181901 0.10693  -0.616550606061
 O1 0.319049 0.761412 0.72591  -0.639242272727
 O1 0.81905 0.761412 0.72591  -0.639242272727
 O2 0.264599 0.554657 0.69648  -0.616550606061
 O2 0.7646 0.554657 0.69648  -0.616550606061
 O2 0.142466 0.492624 0.73339  -0.616550606061
 O2 0.642468 0.492624 0.73339  -0.616550606061
 O2 0.457708 0.666468 0.68893  -0.616550606061
 O2 0.957709 0.666468 0.68893  -0.616550606061
 O2 0.992782 0.831323 0.70814  -0.616550606061
 O2 0.492783 0.831323 0.7081  -0.616550606061
 O2 0.334608 0.691126 0.53659  -0.616550606061
 O2 0.834609 0.691126 0.53659  -0.616550606061
 O2 0.325159 0.680004 0.39257  -0.616550606061
 O2 0.82516 0.680005 0.39257  -0.616550606061
 O1 0.43088 0.739318 0.22635  -0.639242272727
 O1 0.930882 0.739318 0.22635  -0.639242272727
 O2 0.485288 0.946806 0.19624  -0.616550606061
 O2 0.985289 0.946806 0.19624  -0.616550606061
 O2 0.107409 0.008121 0.23336  -0.616550606061
 O2 0.60741 0.008121 0.23336  -0.616550606061
 O2 0.292296 0.835228 0.18872  -0.616550606061
 O2 0.792297 0.835228 0.18872  -0.616550606061
 O2 0.257331 0.67004 0.20835  -0.616550606061
 O2 0.757332 0.67004 0.20835  -0.616550606061
 O2 0.415515 0.810632 0.0373  -0.616550606061
 O2 0.915517 0.810633 0.0373  -0.616550606061
 O2 0.424467 0.818106 0.89308  -0.616550606061
 O2 0.92447 0.818107 0.89308  -0.616550606061
