#======================================================================

# CRYSTAL DATA

#----------------------------------------------------------------------

data_VESTA_phase_1


_pd_phase_name                         MOF
_cell_length_a                         15.55600
_cell_length_b                         21.85700
_cell_length_c                         21.84200
_cell_angle_alpha                      119.90100
_cell_angle_beta                       89.95200
_cell_angle_gamma                      90.04400
_symmetry_space_group_name_H-M         "P 1"
_symmetry_Int_Tables_number            1

loop_
_symmetry_equiv_pos_as_xyz
   "x, y, z"

loop_
   _atom_site_label
   _atom_site_fract_x
   _atom_site_fract_y
   _atom_site_fract_z
 _atom_site_charge
 Zn1 3e-06 0.499995 0.49999  0.881824808743
 Zn1 0.500013 0.499988 0.50000  0.881824808743
 Zn1 0.0 0.999999 0.50000  0.881824808743
 Zn1 0.500005 8e-06 0.50000  0.881824808743
 Zn1 6e-06 0.499995 5e-0  0.881824808743
 Zn1 0.500011 0.49999 0.99999  0.881824808743
 H1 0.236093 0.351433 0.41702  0.112569530965
 H1 0.736098 0.351422 0.41703  0.112569530965
 H1 0.191773 0.329926 0.33409  0.112569530965
 H1 0.691781 0.329917 0.33410  0.112569530965
 H1 0.180345 0.270294 0.36753  0.112569530965
 H1 0.680347 0.270286 0.36753  0.112569530965
 H1 0.061529 0.277361 0.4297  0.112569530965
 H1 0.561524 0.277352 0.42971  0.112569530965
 H1 0.466818 0.207996 0.40994  0.112569530965
 H1 0.966829 0.208001 0.40994  0.112569530965
 H1 0.361726 0.131125 0.42135  0.112569530965
 H1 0.861732 0.131131 0.42135  0.112569530965
 H1 0.219544 0.313984 0.57330  0.112569530965
 H1 0.719555 0.313992 0.57330  0.112569530965
 H1 0.326821 0.390982 0.5614  0.112569530965
 H1 0.826834 0.390989 0.56146  0.112569530965
 H1 0.30151 0.079657 0.47127  0.112569530965
 H1 0.801519 0.079662 0.47127  0.112569530965
 H1 0.184355 0.001271 0.46760  0.112569530965
 H1 0.684362 0.001276 0.46759  0.112569530965
 H1 0.000512 0.15655 0.52409  0.112569530965
 H1 0.500523 0.15656 0.52409  0.112569530965
 H1 0.107842 0.241858 0.52583  0.112569530965
 H1 0.607856 0.241869 0.52584  0.112569530965
 H1 0.235894 0.065963 0.64893  0.112569530965
 H1 0.735903 0.065976 0.6489  0.112569530965
 H1 0.191536 0.0 0.67070  0.112569530965
 H1 0.691554 0.0 0.6706  0.112569530965
 H1 0.180115 0.097583 0.73014  0.112569530965
 H1 0.680129 0.097593 0.73013  0.112569530965
 H1 0.061189 0.152304 0.72288  0.112569530965
 H1 0.561186 0.152302 0.72288  0.112569530965
 H1 0.466641 0.201972 0.79215  0.112569530965
 H1 0.966642 0.201962 0.79214  0.112569530965
 H1 0.361693 0.290133 0.8688  0.112569530965
 H1 0.861694 0.290127 0.86887  0.112569530965
 H1 0.219449 0.258832 0.68568  0.112569530965
 H1 0.71947 0.258836 0.68567  0.112569530965
 H1 0.326597 0.170131 0.60882  0.112569530965
 H1 0.826615 0.170131 0.60881  0.112569530965
 H1 0.301584 0.391394 0.92007  0.112569530965
 H1 0.801585 0.391382 0.92007  0.112569530965
 H1 0.184622 0.466204 0.99832  0.112569530965
 H1 0.684619 0.466186 0.99831  0.112569530965
 H1 0.000644 0.367362 0.84309  0.112569530965
 H1 0.500653 0.367362 0.84307  0.112569530965
 H1 0.107789 0.283752 0.75796  0.112569530965
 H1 0.607801 0.283756 0.75794  0.112569530965
 H1 0.23611 0.582987 0.93400  0.112569530965
 H1 0.736121 0.582962 0.93398  0.112569530965
 H1 0.191782 0.66583 0.9952  0.112569530965
 H1 0.6918 0.66581 0.9952  0.112569530965
 H1 0.180441 0.632536 0.90227  0.112569530965
 H1 0.680461 0.632508 0.90225  0.112569530965
 H1 0.06146 0.570514 0.84744  0.112569530965
 H1 0.561463 0.57051 0.84743  0.112569530965
 H1 0.466709 0.590073 0.7976  0.112569530965
 H1 0.966708 0.590081 0.79769  0.112569530965
 H1 0.361642 0.578556 0.70945  0.112569530965
 H1 0.861647 0.578553 0.70945  0.112569530965
 H1 0.219544 0.42675 0.74121  0.112569530965
 H1 0.719573 0.426726 0.741  0.112569530965
 H1 0.326817 0.438656 0.82995  0.112569530965
 H1 0.826839 0.438645 0.82995  0.112569530965
 H1 0.30151 0.52849 0.60820  0.112569530965
 H1 0.801516 0.528499 0.60821  0.112569530965
 H1 0.184439 0.532028 0.53342  0.112569530965
 H1 0.684441 0.532042 0.53344  0.112569530965
 H1 0.0005 0.475675 0.63271  0.112569530965
 H1 0.500513 0.475658 0.6327  0.112569530965
 H1 0.107738 0.474078 0.71633  0.112569530965
 H1 0.607753 0.474059 0.71633  0.112569530965
 H1 0.263921 0.648543 0.58296  0.112569530965
 H1 0.763937 0.648576 0.58300  0.112569530965
 H1 0.308236 0.670059 0.66589  0.112569530965
 H1 0.808267 0.670066 0.66592  0.112569530965
 H1 0.319665 0.729684 0.63244  0.112569530965
 H1 0.819699 0.729707 0.632  0.112569530965
 H1 0.43849 0.72262 0.57027  0.112569530965
 H1 0.938508 0.722638 0.57030  0.112569530965
 H1 0.033198 0.791992 0.59006  0.112569530965
 H1 0.533198 0.791979 0.5900  0.112569530965
 H1 0.138286 0.868863 0.5786  0.112569530965
 H1 0.638295 0.868852 0.57864  0.112569530965
 H1 0.28047 0.686005 0.42670  0.112569530965
 H1 0.780481 0.685994 0.42670  0.112569530965
 H1 0.173195 0.609006 0.43854  0.112569530965
 H1 0.673203 0.608994 0.43853  0.112569530965
 H1 0.198507 0.920334 0.52874  0.112569530965
 H1 0.698508 0.920321 0.52872  0.112569530965
 H1 0.315663 0.998719 0.53241  0.112569530965
 H1 0.815663 0.998707 0.53239  0.112569530965
 H1 0.499504 0.843438 0.4759  0.112569530965
 H1 0.999506 0.843428 0.4759  0.112569530965
 H1 0.392173 0.758129 0.47417  0.112569530965
 H1 0.892175 0.758119 0.47416  0.112569530965
 H1 0.264117 0.934021 0.35108  0.112569530965
 H1 0.764131 0.934016 0.35107  0.112569530965
 H1 0.308468 0.995329 0.32931  0.112569530965
 H1 0.808486 0.995331 0.32931  0.112569530965
 H1 0.319889 0.9024 0.26986  0.112569530965
 H1 0.819912 0.902404 0.2698  0.112569530965
 H1 0.438827 0.847687 0.27711  0.112569530965
 H1 0.938842 0.847685 0.27711  0.112569530965
 H1 0.033379 0.798018 0.20785  0.112569530965
 H1 0.53338 0.798025 0.20785  0.112569530965
 H1 0.138327 0.709855 0.13112  0.112569530965
 H1 0.638329 0.709861 0.13112  0.112569530965
 H1 0.280564 0.741152 0.31431  0.112569530965
 H1 0.780558 0.741151 0.3143  0.112569530965
 H1 0.173417 0.829854 0.39118  0.112569530965
 H1 0.673412 0.829854 0.39118  0.112569530965
 H1 0.198436 0.608599 0.07992  0.112569530965
 H1 0.698436 0.608598 0.07992  0.112569530965
 H1 0.315399 0.533794 0.00167  0.112569530965
 H1 0.815402 0.53379 0.00168  0.112569530965
 H1 0.499373 0.632623 0.15691  0.112569530965
 H1 0.99937 0.632625 0.15692  0.112569530965
 H1 0.392227 0.716229 0.24204  0.112569530965
 H1 0.892221 0.716233 0.24205  0.112569530965
 H1 0.263902 0.41702 0.06600  0.112569530965
 H1 0.76392 0.417 0.06600  0.112569530965
 H1 0.308222 0.334171 0.  0.112569530965
 H1 0.808241 0.334157 0.  0.112569530965
 H1 0.319561 0.367474 0.09773  0.112569530965
 H1 0.819589 0.367444 0.09772  0.112569530965
 H1 0.438556 0.429478 0.1525  0.112569530965
 H1 0.938575 0.429458 0.15255  0.112569530965
 H1 0.03332 0.4099 0.20231  0.112569530965
 H1 0.533315 0.409906 0.20230  0.112569530965
 H1 0.138387 0.421422 0.29054  0.112569530965
 H1 0.63838 0.421425 0.29054  0.112569530965
 H1 0.280466 0.573244 0.25879  0.112569530965
 H1 0.780464 0.573248 0.25879  0.112569530965
 H1 0.173193 0.561334 0.1700  0.112569530965
 H1 0.673195 0.561338 0.1700  0.112569530965
 H1 0.19851 0.47149 0.39179  0.112569530965
 H1 0.698509 0.471486 0.39179  0.112569530965
 H1 0.315583 0.467947 0.46656  0.112569530965
 H1 0.815582 0.46795 0.46656  0.112569530965
 H1 0.499518 0.524315 0.36729  0.112569530965
 H1 0.999514 0.524322 0.36729  0.112569530965
 H1 0.39228 0.525915 0.28366  0.112569530965
 H1 0.892276 0.525917 0.28366  0.112569530965
 C1 0.181005 0.325992 0.38171  -0.474275191257
 C1 0.68101 0.325983 0.38171  -0.474275191257
 C2 0.099285 0.364504 0.41843  0.514634808743
 C2 0.59929 0.364497 0.41844  0.514634808743
 C3 0.042549 0.330213 0.44221  -0.200114715066
 C3 0.542546 0.330205 0.44221  -0.200114715066
 C2 0.462772 0.355268 0.47625  0.514634808743
 C2 0.962778 0.355269 0.47623  0.514634808743
 C4 0.404533 0.305681 0.48539  0.0274614754098
 C4 0.904544 0.305688 0.48539  0.0274614754098
 C3 0.41376 0.231955 0.44692  -0.200114715066
 C3 0.913776 0.231962 0.44692  -0.200114715066
 C3 0.3537 0.18815 0.45295  -0.200114715066
 C3 0.853711 0.188156 0.45295  -0.200114715066
 C4 0.281503 0.216394 0.49723  0.0274614754098
 C4 0.781514 0.2164 0.49723  0.0274614754098
 C3 0.273547 0.290273 0.53717  -0.200114715066
 C3 0.773557 0.290278 0.53716  -0.200114715066
 C3 0.333943 0.333906 0.53130  -0.200114715066
 C3 0.833958 0.333913 0.53130  -0.200114715066
 C4 0.215294 0.168935 0.498  0.0274614754098
 C4 0.715304 0.168942 0.49889  0.0274614754098
 C3 0.235819 0.099822 0.4827  -0.200114715066
 C3 0.73583 0.099829 0.4827  -0.200114715066
 C5 0.171012 0.055484 0.4811  0.168554808743
 C5 0.671021 0.055489 0.48113  0.168554808743
 C5 0.068008 0.141922 0.51239  0.168554808743
 C5 0.568019 0.14193 0.51239  0.168554808743
 C3 0.128689 0.189555 0.51424  -0.200114715066
 C3 0.6287 0.189564 0.51425  -0.200114715066
 C1 0.180785 0.056094 0.67445  -0.474275191257
 C1 0.680799 0.056105 0.6744  -0.474275191257
 C2 0.099105 0.054171 0.63580  0.514634808743
 C2 0.599111 0.054177 0.63580  0.514634808743
 C3 0.0423 0.112034 0.6699  -0.200114715066
 C3 0.542301 0.112037 0.6699  -0.200114715066
 C2 0.462611 0.120948 0.6447  0.514634808743
 C2 0.962618 0.120939 0.64476  0.514634808743
 C4 0.404355 0.179533 0.69428  0.0274614754098
 C4 0.904362 0.179526 0.69427  0.0274614754098
 C3 0.413598 0.21486 0.76806  -0.200114715066
 C3 0.913607 0.214857 0.76806  -0.200114715066
 C3 0.353606 0.264641 0.81180  -0.200114715066
 C3 0.853608 0.264632 0.81180  -0.200114715066
 C4 0.281431 0.280568 0.78345  0.0274614754098
 C4 0.781443 0.280569 0.78344  0.0274614754098
 C3 0.273431 0.246517 0.7095  -0.200114715066
 C3 0.773443 0.246514 0.70950  -0.200114715066
 C3 0.333766 0.197082 0.66594  -0.200114715066
 C3 0.833784 0.197084 0.66593  -0.200114715066
 C4 0.215314 0.329709 0.83083  0.0274614754098
 C4 0.71532 0.329703 0.83082  0.0274614754098
 C3 0.235896 0.382704 0.89989  -0.200114715066
 C3 0.7359 0.382694 0.89988  -0.200114715066
 C5 0.171173 0.425505 0.94415  0.168554808743
 C5 0.671176 0.425495 0.9441  0.168554808743
 C5 0.068123 0.370319 0.85777  0.168554808743
 C5 0.568131 0.370321 0.85775  0.168554808743
 C3 0.128711 0.324483 0.81021  -0.200114715066
 C3 0.628719 0.324483 0.81019  -0.200114715066
 C1 0.181033 0.618292 0.94382  -0.474275191257
 C1 0.68105 0.61827 0.94380  -0.474275191257
 C2 0.099299 0.581546 0.94574  0.514634808743
 C2 0.599307 0.58154 0.94573  0.514634808743
 C3 0.042503 0.557925 0.88783  -0.200114715066
 C3 0.54251 0.557918 0.88782  -0.200114715066
 C2 0.462754 0.523862 0.87901  0.514634808743
 C2 0.962766 0.523855 0.87901  0.514634808743
 C4 0.404492 0.514688 0.82033  0.0274614754098
 C4 0.904499 0.514692 0.82034  0.0274614754098
 C3 0.413674 0.553105 0.78487  -0.200114715066
 C3 0.913681 0.553106 0.78487  -0.200114715066
 C3 0.353613 0.547019 0.73506  -0.200114715066
 C3 0.853616 0.547022 0.73507  -0.200114715066
 C4 0.281438 0.502748 0.71926  0.0274614754098
 C4 0.781456 0.502732 0.71926  0.0274614754098
 C3 0.273523 0.462878 0.75343  -0.200114715066
 C3 0.773539 0.462869 0.75343  -0.200114715066
 C3 0.333927 0.468782 0.80288  -0.200114715066
 C3 0.833947 0.468773 0.80288  -0.200114715066
 C4 0.215248 0.500963 0.67011  0.0274614754098
 C4 0.715256 0.500956 0.6701  0.0274614754098
 C3 0.23581 0.517007 0.61697  -0.200114715066
 C3 0.735818 0.517011 0.61698  -0.200114715066
 C5 0.171046 0.518541 0.57421  0.168554808743
 C5 0.671055 0.518537 0.57422  0.168554808743
 C5 0.067999 0.487365 0.62966  0.168554808743
 C5 0.568012 0.487345 0.62966  0.168554808743
 C3 0.128635 0.485596 0.67549  -0.200114715066
 C3 0.628644 0.485583 0.67549  -0.200114715066
 C1 0.319006 0.673988 0.61827  -0.474275191257
 C1 0.819032 0.674007 0.61831  -0.474275191257
 C2 0.400733 0.63548 0.58156  0.514634808743
 C2 0.900739 0.635485 0.58156  0.514634808743
 C3 0.457468 0.669767 0.55777  -0.200114715066
 C3 0.957488 0.669785 0.55780  -0.200114715066
 C2 0.037241 0.644716 0.5237  0.514634808743
 C2 0.537254 0.644713 0.52376  0.514634808743
 C4 0.095486 0.694307 0.51461  0.0274614754098
 C4 0.595486 0.694294 0.514  0.0274614754098
 C3 0.086254 0.768033 0.55308  -0.200114715066
 C3 0.586255 0.76802 0.55307  -0.200114715066
 C3 0.146316 0.811838 0.54705  -0.200114715066
 C3 0.646316 0.811826 0.54704  -0.200114715066
 C4 0.218509 0.783595 0.50277  0.0274614754098
 C4 0.718518 0.783584 0.50277  0.0274614754098
 C3 0.22647 0.709716 0.46284  -0.200114715066
 C3 0.726474 0.709706 0.46283  -0.200114715066
 C3 0.166073 0.666083 0.46870  -0.200114715066
 C3 0.666077 0.66607 0.46869  -0.200114715066
 C4 0.284723 0.831053 0.50111  0.0274614754098
 C4 0.784724 0.831044 0.50110  0.0274614754098
 C3 0.264197 0.900167 0.51726  -0.200114715066
 C3 0.764198 0.900155 0.51724  -0.200114715066
 C5 0.329003 0.944504 0.51887  0.168554808743
 C5 0.829008 0.944496 0.51886  0.168554808743
 C5 0.432007 0.858065 0.48761  0.168554808743
 C5 0.932011 0.858057 0.48761  0.168554808743
 C3 0.371328 0.810434 0.48576  -0.200114715066
 C3 0.871328 0.810422 0.4857  -0.200114715066
 C1 0.319222 0.94389 0.32555  -0.474275191257
 C1 0.819238 0.943889 0.32554  -0.474275191257
 C2 0.400908 0.945817 0.36420  0.514634808743
 C2 0.900921 0.945814 0.36419  0.514634808743
 C3 0.457715 0.887954 0.33001  -0.200114715066
 C3 0.957726 0.88795 0.33001  -0.200114715066
 C2 0.037408 0.879043 0.35523  0.514634808743
 C2 0.537409 0.879048 0.35523  0.514634808743
 C4 0.095664 0.820456 0.30572  0.0274614754098
 C4 0.595661 0.820458 0.30572  0.0274614754098
 C3 0.086417 0.785126 0.23193  -0.200114715066
 C3 0.586419 0.785132 0.23193  -0.200114715066
 C3 0.146414 0.73535 0.188  -0.200114715066
 C3 0.646412 0.735351 0.188  -0.200114715066
 C4 0.218583 0.719416 0.21655  0.0274614754098
 C4 0.718583 0.71942 0.21655  0.0274614754098
 C3 0.226586 0.75347 0.29049  -0.200114715066
 C3 0.726579 0.753469 0.29049  -0.200114715066
 C3 0.166247 0.802901 0.33406  -0.200114715066
 C3 0.666244 0.802904 0.33406  -0.200114715066
 C4 0.284704 0.67028 0.16917  0.0274614754098
 C4 0.784701 0.67028 0.16917  0.0274614754098
 C3 0.264122 0.617287 0.10011  -0.200114715066
 C3 0.764122 0.617286 0.10011  -0.200114715066
 C5 0.328845 0.574488 0.05584  0.168554808743
 C5 0.828848 0.574488 0.05585  0.168554808743
 C5 0.431894 0.629665 0.14223  0.168554808743
 C5 0.931892 0.629669 0.14224  0.168554808743
 C3 0.371306 0.675501 0.18979  -0.200114715066
 C3 0.871302 0.675504 0.18980  -0.200114715066
 C1 0.318973 0.381712 0.05618  -0.474275191257
 C1 0.818993 0.381691 0.05618  -0.474275191257
 C2 0.400713 0.418448 0.05426  0.514634808743
 C2 0.900722 0.418444 0.05426  0.514634808743
 C3 0.457512 0.442066 0.11217  -0.200114715066
 C3 0.957529 0.442049 0.11216  -0.200114715066
 C2 0.037263 0.476124 0.12098  0.514634808743
 C2 0.537264 0.47613 0.12098  0.514634808743
 C4 0.095529 0.485293 0.17966  0.0274614754098
 C4 0.595528 0.485297 0.17966  0.0274614754098
 C3 0.08635 0.446873 0.21512  -0.200114715066
 C3 0.586347 0.446877 0.21512  -0.200114715066
 C3 0.14641 0.452962 0.26493  -0.200114715066
 C3 0.646408 0.452963 0.2649  -0.200114715066
 C4 0.218583 0.497237 0.2807  0.0274614754098
 C4 0.718577 0.497242 0.28073  0.0274614754098
 C3 0.226491 0.537112 0.2465  -0.200114715066
 C3 0.72649 0.537113 0.24656  -0.200114715066
 C3 0.166087 0.531205 0.19711  -0.200114715066
 C3 0.666087 0.531208 0.19711  -0.200114715066
 C4 0.284772 0.499024 0.32988  0.0274614754098
 C4 0.78477 0.499024 0.32988  0.0274614754098
 C3 0.264209 0.482976 0.3830  -0.200114715066
 C3 0.764207 0.482973 0.38301  -0.200114715066
 C5 0.328974 0.481439 0.42578  0.168554808743
 C5 0.828972 0.481444 0.4257  0.168554808743
 C5 0.43202 0.512624 0.37033  0.168554808743
 C5 0.932015 0.512631 0.37033  0.168554808743
 C3 0.371385 0.514394 0.32450  -0.200114715066
 C3 0.871381 0.514396 0.32450  -0.200114715066
 N1 0.088135 0.075449 0.49557  -0.317161857923
 N1 0.588144 0.075453 0.49556  -0.317161857923
 N1 0.088294 0.420025 0.924  -0.317161857923
 N1 0.588297 0.420014 0.92419  -0.317161857923
 N1 0.088159 0.504107 0.5798  -0.317161857923
 N1 0.588168 0.504107 0.57985  -0.317161857923
 N1 0.411881 0.924542 0.5044  -0.317161857923
 N1 0.911884 0.924531 0.50442  -0.317161857923
 N1 0.411724 0.579968 0.07580  -0.317161857923
 N1 0.911725 0.579966 0.07581  -0.317161857923
 N1 0.411861 0.495873 0.42014  -0.317161857923
 N1 0.911858 0.49588 0.42014  -0.317161857923
 O1 0.433088 0.417811 0.50019  -0.524135191257
 O1 0.933095 0.417813 0.50018  -0.524135191257
 O1 0.08827 0.425416 0.42487  -0.524135191257
 O1 0.588278 0.425409 0.42488  -0.524135191257
 O1 0.433074 0.082427 0.58214  -0.524135191257
 O1 0.933076 0.082411 0.58214  -0.524135191257
 O1 0.088238 0.999759 0.57489  -0.524135191257
 O1 0.588245 0.999769 0.57488  -0.524135191257
 O1 0.43312 0.499865 0.9177  -0.524135191257
 O1 0.933122 0.499875 0.91773  -0.524135191257
 O1 0.088326 0.574966 0.00020  -0.524135191257
 O1 0.588334 0.574957 0.00019  -0.524135191257
 O1 0.066929 0.582175 0.49980  -0.524135191257
 O1 0.566933 0.582168 0.49980  -0.524135191257
 O1 0.411747 0.574568 0.57512  -0.524135191257
 O1 0.91175 0.574571 0.5751  -0.524135191257
 O1 0.066944 0.917564 0.41785  -0.524135191257
 O1 0.566948 0.91757 0.41785  -0.524135191257
 O1 0.411777 0.000226 0.42511  -0.524135191257
 O1 0.911786 0.000221 0.42511  -0.524135191257
 O1 0.066898 0.500119 0.08228  -0.524135191257
 O1 0.566904 0.500118 0.08227  -0.524135191257
 O1 0.411688 0.425026 0.99979  -0.524135191257
 O1 0.911696 0.425027 0.999  -0.524135191257
