#======================================================================

# CRYSTAL DATA

#----------------------------------------------------------------------

data_VESTA_phase_1


_pd_phase_name                         MOF
_cell_length_a                         14.30800
_cell_length_b                         15.84400
_cell_length_c                         15.84500
_cell_angle_alpha                      78.29100
_cell_angle_beta                       63.23000
_cell_angle_gamma                      63.22900
_symmetry_space_group_name_H-M         "P 1"
_symmetry_Int_Tables_number            1

loop_
_symmetry_equiv_pos_as_xyz
   "x, y, z"

loop_
   _atom_site_label
   _atom_site_fract_x
   _atom_site_fract_y
   _atom_site_fract_z
 _atom_site_charge
 Ca1 0.535104 0.99954 0.42965  1.67025256944
 Ca1 0.965363 0.999602 0.56946  1.67025256944
 Ca1 0.0351 0.429787 0.99945  1.67025256944
 Ca1 0.465377 0.569567 0.99950  1.67025256944
 Cd1 0.236605 0.026776 0.49994  1.08508006944
 Cd1 0.762994 0.973548 0.49977  1.08508006944
 Cd1 0.262929 0.499926 0.97345  1.08508006944
 Cd1 0.736577 0.500069 0.02672  1.08508006944
 H1 0.616703 0.342848 0.26244  0.387716319444
 H2 0.460457 0.206917 0.40087  0.114665069444
 H2 0.506511 0.403759 0.17215  0.114665069444
 H2 0.272626 0.279073 0.22614  0.114665069444
 H1 0.221449 0.65763 0.73707  0.387716319444
 H2 0.067593 0.793056 0.59851  0.114665069444
 H2 0.082253 0.596722 0.82750  0.114665069444
 H2 0.777498 0.721018 0.77402  0.114665069444
 H1 0.12112 0.263571 0.65566  0.387716319444
 H2 0.13939 0.401434 0.79205  0.114665069444
 H2 0.321257 0.172861 0.59511  0.114665069444
 H2 0.500812 0.225091 0.72154  0.114665069444
 H1 0.04087 0.73781 0.34166  0.387716319444
 H2 0.332875 0.59899 0.20640  0.114665069444
 H2 0.090082 0.828104 0.40265  0.114665069444
 H2 0.448558 0.773268 0.27945  0.114665069444
 H1 0.721497 0.737104 0.65752  0.387716319444
 H2 0.567566 0.598591 0.79300  0.114665069444
 H2 0.582341 0.827489 0.59656  0.114665069444
 H2 0.277527 0.774117 0.72091  0.114665069444
 H1 0.116749 0.262506 0.34277  0.387716319444
 H2 0.960518 0.400954 0.20682  0.114665069444
 H2 0.0 0.17223 0.40368  0.114665069444
 H2 0.772628 0.226264 0.27900  0.114665069444
 H1 0.540911 0.341705 0.73776  0.387716319444
 H2 0.832905 0.20649 0.59892  0.114665069444
 H2 0.590122 0.402732 0.82802  0.114665069444
 H2 0.948597 0.279521 0.773  0.114665069444
 H1 0.621117 0.655726 0.26350  0.387716319444
 H2 0.639392 0.792129 0.40135  0.114665069444
 H2 0.821266 0.595158 0.17280  0.114665069444
 H2 0.0 0.721612 0.2250  0.114665069444
 C1 0.30889 0.166716 0.37484  0.736655069444
 C1 0.35573 0.404089 0.11392  0.736655069444
 C2 0.361944 0.233539 0.31872  -0.123980555556
 C3 0.441619 0.243063 0.34041  -0.140186597222
 C4 0.495519 0.303302 0.28718  0.328823819444
 C3 0.466828 0.355512 0.21306  -0.140186597222
 C2 0.386832 0.346239 0.19185  -0.123980555556
 C3 0.334339 0.285068 0.24402  -0.140186597222
 C1 0.849919 0.833192 0.62489  0.736655069444
 C1 0.873916 0.595992 0.88601  0.736655069444
 C2 0.913672 0.766532 0.6810  -0.123980555556
 C3 0.024518 0.75709 0.65920  -0.140186597222
 C4 0.085519 0.697074 0.71242  0.328823819444
 C3 0.03512 0.644861 0.78664  -0.140186597222
 C2 0.924715 0.653994 0.80803  -0.123980555556
 C3 0.863049 0.715083 0.75596  -0.140186597222
 C1 0.316557 0.374297 0.83332  0.736655069444
 C1 0.529833 0.113648 0.59576  0.736655069444
 C2 0.319461 0.318406 0.76631  -0.123980555556
 C3 0.21835 0.340723 0.75616  -0.140186597222
 C4 0.217581 0.287855 0.69557  0.328823819444
 C3 0.320071 0.213456 0.6436  -0.140186597222
 C2 0.421033 0.191636 0.65354  -0.123980555556
 C3 0.421417 0.243429 0.71508  -0.140186597222
 C1 0.524501 0.624712 0.16683  0.736655069444
 C1 0.240322 0.885987 0.40383  0.736655069444
 C2 0.404725 0.680943 0.23347  -0.123980555556
 C3 0.315564 0.659456 0.24260  -0.140186597222
 C4 0.201485 0.712844 0.30251  0.328823819444
 C3 0.17799 0.786991 0.35474  -0.140186597222
 C2 0.267207 0.807993 0.34591  -0.123980555556
 C3 0.380839 0.755609 0.28511  -0.140186597222
 C1 0.349887 0.625025 0.8331  0.736655069444
 C1 0.374034 0.886008 0.59580  0.736655069444
 C2 0.41368 0.681168 0.76645  -0.123980555556
 C3 0.524511 0.659274 0.75702  -0.140186597222
 C4 0.585537 0.712479 0.69699  0.328823819444
 C3 0.535181 0.786662 0.64472  -0.140186597222
 C2 0.424792 0.80806 0.6538  -0.123980555556
 C3 0.363085 0.756039 0.71497  -0.140186597222
 C1 0.808899 0.374953 0.1666  0.736655069444
 C1 0.855714 0.114014 0.4039  0.736655069444
 C2 0.861964 0.318831 0.23346  -0.123980555556
 C3 0.941657 0.3405 0.24298  -0.140186597222
 C4 0.995538 0.287275 0.30323  0.328823819444
 C3 0.966838 0.213149 0.35544  -0.140186597222
 C2 0.886839 0.191949 0.3461  -0.123980555556
 C3 0.834348 0.244133 0.28499  -0.140186597222
 C1 0.024558 0.166897 0.62464  0.736655069444
 C1 0.740332 0.403924 0.88590  0.736655069444
 C2 0.904768 0.233543 0.68087  -0.123980555556
 C3 0.815604 0.242678 0.6593  -0.140186597222
 C4 0.701528 0.302594 0.71277  0.328823819444
 C3 0.678032 0.354821 0.78692  -0.140186597222
 C2 0.767248 0.345986 0.80792  -0.123980555556
 C3 0.880878 0.285178 0.75554  -0.140186597222
 C1 0.81656 0.833392 0.37423  0.736655069444
 C1 0.029882 0.595879 0.11356  0.736655069444
 C2 0.81947 0.766375 0.31835  -0.123980555556
 C3 0.718359 0.756229 0.34065  -0.140186597222
 C4 0.717594 0.695634 0.28778  0.328823819444
 C3 0.820088 0.643718 0.21339  -0.140186597222
 C2 0.921045 0.653601 0.19157  -0.123980555556
 C3 0.921423 0.715145 0.24337  -0.140186597222
 O1 0.366409 0.09717 0.41661  -0.786616180556
 O2 0.21366 0.174541 0.38311  -0.565708680556
 O3 0.301053 0.384373 0.08196  -0.617448680556
 O4 0.385504 0.473615 0.08208  -0.763979930556
 O5 0.572076 0.30859 0.31133  -0.509237430556
 O1 0.879646 0.902796 0.58309  -0.786616180556
 O2 0.770853 0.825205 0.61663  -0.565708680556
 O3 0.767562 0.615904 0.91859  -0.617448680556
 O4 0.941726 0.526193 0.91720  -0.763979930556
 O5 0.191383 0.691934 0.68821  -0.509237430556
 O1 0.217252 0.416265 0.90269  -0.786616180556
 O2 0.403619 0.382224 0.82573  -0.565708680556
 O3 0.616271 0.081462 0.61568  -0.617448680556
 O4 0.531948 0.082072 0.52603  -0.763979930556
 O5 0.117205 0.312629 0.68952  -0.509237430556
 O1 0.536501 0.583214 0.09703  -0.786616180556
 O2 0.611852 0.616157 0.17497  -0.565708680556
 O3 0.314461 0.918151 0.38421  -0.617448680556
 O4 0.141118 0.917712 0.47328  -0.763979930556
 O5 0.119663 0.688872 0.30748  -0.509237430556
 O1 0.379676 0.583155 0.90269  -0.786616180556
 O2 0.270731 0.616855 0.82521  -0.565708680556
 O3 0.267693 0.918561 0.6156  -0.617448680556
 O4 0.441862 0.917195 0.52601  -0.763979930556
 O5 0.691371 0.688295 0.69191  -0.509237430556
 O1 0.86641 0.416718 0.09709  -0.786616180556
 O2 0.713665 0.383223 0.17449  -0.565708680556
 O3 0.80102 0.082107 0.38420  -0.617448680556
 O4 0.885469 0.082088 0.47349  -0.763979930556
 O5 0.072102 0.31142 0.30853  -0.509237430556
 O1 0.036545 0.097108 0.5831  -0.786616180556
 O2 0.111915 0.175025 0.61608  -0.565708680556
 O3 0.814458 0.384364 0.91807  -0.617448680556
 O4 0.6411 0.473351 0.91762  -0.763979930556
 O5 0.619705 0.307578 0.68880  -0.509237430556
 O1 0.717284 0.902834 0.41609  -0.786616180556
 O2 0.903586 0.825756 0.38226  -0.565708680556
 O3 0.116237 0.615915 0.08136  -0.617448680556
 O4 0.032136 0.526085 0.0819  -0.763979930556
 O5 0.617214 0.689591 0.31255  -0.509237430556
