#======================================================================

# CRYSTAL DATA

#----------------------------------------------------------------------

data_VESTA_phase_1


_pd_phase_name                         MOF
_cell_length_a                         9.64700
_cell_length_b                         19.51200
_cell_length_c                         23.02900
_cell_angle_alpha                      89.99800
_cell_angle_beta                       93.39700
_cell_angle_gamma                      89.99900
_symmetry_space_group_name_H-M         "P 1"
_symmetry_Int_Tables_number            1

loop_
_symmetry_equiv_pos_as_xyz
   "x, y, z"

loop_
   _atom_site_label
   _atom_site_fract_x
   _atom_site_fract_y
   _atom_site_fract_z
 _atom_site_charge
 Cd1 8.9e-05 0.999992 0.49999  1.24757408163
 Cd1 8.1e-05 0.499996 0.49999  1.24757408163
 Cd1 0.5001 0.999992 0.49999  1.24757408163
 Cd1 0.500093 0.499996 0.49999  1.24757408163
 Cd1 3.6e-05 0.250003 0.  1.24757408163
 Cd1 4.4e-05 0.750006 0.99999  1.24757408163
 Cd1 0.500049 0.250003 0.  1.24757408163
 Cd1 0.500057 0.750007 0.99999  1.24757408163
 As1 0.277603 0.434596 0.5965  1.77970408163
 As1 0.277623 0.934598 0.59651  1.77970408163
 As1 0.777615 0.434595 0.5965  1.77970408163
 As1 0.777637 0.934598 0.59651  1.77970408163
 As1 0.222502 0.184593 0.90346  1.77970408163
 As1 0.22251 0.684598 0.90346  1.77970408163
 As1 0.722514 0.184594 0.90346  1.77970408163
 As1 0.722522 0.684598 0.90346  1.77970408163
 As1 0.222538 0.065403 0.40347  1.77970408163
 As1 0.222536 0.565406 0.40347  1.77970408163
 As1 0.722552 0.065403 0.40347  1.77970408163
 As1 0.722551 0.565407 0.40347  1.77970408163
 As1 0.277558 0.315402 0.0965  1.77970408163
 As1 0.277564 0.815405 0.0965  1.77970408163
 As1 0.777573 0.315401 0.0965  1.77970408163
 As1 0.777579 0.815404 0.0965  1.77970408163
 H1 0.394826 0.028864 0.87074  0.286304081633
 H1 0.394828 0.528864 0.87074  0.286304081633
 H1 0.894838 0.028865 0.87074  0.286304081633
 H1 0.894852 0.528865 0.87074  0.286304081633
 H2 0.062875 0.382431 0.58111  0.424169081633
 H2 0.062895 0.882433 0.58111  0.424169081633
 H2 0.562887 0.382431 0.58111  0.424169081633
 H2 0.562909 0.882434 0.58111  0.424169081633
 H2 0.327629 0.3234 0.91079  0.424169081633
 H2 0.327638 0.823406 0.91079  0.424169081633
 H2 0.827641 0.323403 0.91079  0.424169081633
 H2 0.827651 0.823405 0.91079  0.424169081633
 H3 0.481618 0.36843 0.68305  0.104294914966
 H3 0.481641 0.868435 0.68305  0.104294914966
 H3 0.981626 0.368427 0.68305  0.104294914966
 H3 0.981653 0.868434 0.68305  0.104294914966
 H3 0.050336 0.388765 0.78525  0.104294914966
 H3 0.050355 0.888771 0.78526  0.104294914966
 H3 0.550345 0.388767 0.7852  0.104294914966
 H3 0.550368 0.888772 0.78526  0.104294914966
 H3 0.261689 0.058906 0.78749  0.104294914966
 H3 0.261695 0.558908 0.78749  0.104294914966
 H3 0.76171 0.058909 0.78749  0.104294914966
 H3 0.761722 0.558913 0.78749  0.104294914966
 H3 0.189637 0.036903 0.6853  0.104294914966
 H3 0.189641 0.536907 0.6853  0.104294914966
 H3 0.68966 0.036906 0.6853  0.104294914966
 H3 0.689662 0.53691 0.68534  0.104294914966
 H3 0.140491 0.438228 0.86707  0.104294914966
 H3 0.140495 0.938235 0.86708  0.104294914966
 H3 0.640499 0.438231 0.86707  0.104294914966
 H3 0.640507 0.938233 0.86707  0.104294914966
 H3 0.079376 0.482271 0.92643  0.104294914966
 H3 0.07938 0.982279 0.92643  0.104294914966
 H3 0.57938 0.482271 0.92643  0.104294914966
 H3 0.579395 0.982278 0.92643  0.104294914966
 H1 0.105238 0.27886 0.62922  0.286304081633
 H1 0.105252 0.778864 0.6292  0.286304081633
 H1 0.60526 0.27886 0.62922  0.286304081633
 H1 0.605273 0.778864 0.6292  0.286304081633
 H2 0.437231 0.132427 0.9188  0.424169081633
 H2 0.437238 0.63243 0.91885  0.424169081633
 H2 0.937242 0.132427 0.9188  0.424169081633
 H2 0.93725 0.63243 0.91885  0.424169081633
 H2 0.172497 0.073415 0.58917  0.424169081633
 H2 0.172495 0.573418 0.58917  0.424169081633
 H2 0.672509 0.073413 0.58917  0.424169081633
 H2 0.672507 0.573415 0.58917  0.424169081633
 H3 0.018479 0.11843 0.81692  0.104294914966
 H3 0.018484 0.618437 0.81692  0.104294914966
 H3 0.51849 0.118432 0.81692  0.104294914966
 H3 0.518496 0.618438 0.81692  0.104294914966
 H3 0.44975 0.138765 0.71472  0.104294914966
 H3 0.449756 0.638772 0.71472  0.104294914966
 H3 0.949757 0.138765 0.71472  0.104294914966
 H3 0.949764 0.638773 0.71472  0.104294914966
 H3 0.238366 0.308908 0.71246  0.104294914966
 H3 0.238377 0.808913 0.71246  0.104294914966
 H3 0.73839 0.308905 0.71246  0.104294914966
 H3 0.7384 0.80891 0.71246  0.104294914966
 H3 0.310439 0.286909 0.81461  0.104294914966
 H3 0.310448 0.786914 0.81461  0.104294914966
 H3 0.810457 0.286907 0.81461  0.104294914966
 H3 0.810466 0.786912 0.81461  0.104294914966
 H3 0.359609 0.188214 0.63289  0.104294914966
 H3 0.359617 0.688223 0.63289  0.104294914966
 H3 0.859619 0.188213 0.63289  0.104294914966
 H3 0.859625 0.688222 0.63289  0.104294914966
 H3 0.420699 0.232267 0.57353  0.104294914966
 H3 0.420708 0.732274 0.57353  0.104294914966
 H3 0.920704 0.232267 0.57353  0.104294914966
 H3 0.920716 0.732274 0.57353  0.104294914966
 H1 0.10523 0.471134 0.12923  0.286304081633
 H1 0.105242 0.971135 0.1292  0.286304081633
 H1 0.605241 0.471135 0.12923  0.286304081633
 H1 0.605258 0.971135 0.1292  0.286304081633
 H2 0.437259 0.117569 0.41886  0.424169081633
 H2 0.437258 0.617572 0.41886  0.424169081633
 H2 0.937272 0.11757 0.41886  0.424169081633
 H2 0.937272 0.617573 0.41886  0.424169081633
 H2 0.17245 0.176589 0.08918  0.424169081633
 H2 0.172454 0.676593 0.08918  0.424169081633
 H2 0.672464 0.176589 0.08918  0.424169081633
 H2 0.672468 0.676592 0.08918  0.424169081633
 H3 0.018493 0.131568 0.31693  0.104294914966
 H3 0.018498 0.631574 0.31693  0.104294914966
 H3 0.518505 0.131567 0.31693  0.104294914966
 H3 0.518514 0.631575 0.31693  0.104294914966
 H3 0.449744 0.11123 0.21473  0.104294914966
 H3 0.449752 0.611236 0.21473  0.104294914966
 H3 0.949756 0.111231 0.21473  0.104294914966
 H3 0.949764 0.611235 0.21473  0.104294914966
 H3 0.238369 0.441086 0.21248  0.104294914966
 H3 0.238385 0.941088 0.21248  0.104294914966
 H3 0.738388 0.441089 0.21248  0.104294914966
 H3 0.738408 0.941091 0.21248  0.104294914966
 H3 0.310456 0.463089 0.31462  0.104294914966
 H3 0.310472 0.96309 0.31462  0.104294914966
 H3 0.810478 0.463093 0.31462  0.104294914966
 H3 0.810495 0.963094 0.31462  0.104294914966
 H3 0.359592 0.061775 0.13291  0.104294914966
 H3 0.359589 0.561779 0.13291  0.104294914966
 H3 0.859603 0.061775 0.13290  0.104294914966
 H3 0.8596 0.561778 0.13291  0.104294914966
 H3 0.420685 0.017723 0.07355  0.104294914966
 H3 0.420687 0.51773 0.07355  0.104294914966
 H3 0.920696 0.017722 0.07355  0.104294914966
 H3 0.920704 0.51773 0.07355  0.104294914966
 H1 0.394869 0.221143 0.37076  0.286304081633
 H1 0.39488 0.72115 0.37076  0.286304081633
 H1 0.894875 0.221143 0.37076  0.286304081633
 H1 0.894894 0.721149 0.37076  0.286304081633
 H2 0.062827 0.367568 0.08112  0.424169081633
 H2 0.062833 0.867571 0.08112  0.424169081633
 H2 0.562841 0.367567 0.08112  0.424169081633
 H2 0.562847 0.86757 0.08112  0.424169081633
 H2 0.32769 0.426605 0.41080  0.424169081633
 H2 0.327716 0.926611 0.4108  0.424169081633
 H2 0.827704 0.426608 0.41080  0.424169081633
 H2 0.827731 0.926612 0.4108  0.424169081633
 H3 0.481576 0.381569 0.18305  0.104294914966
 H3 0.481586 0.881573 0.18305  0.104294914966
 H3 0.981595 0.381567 0.18305  0.104294914966
 H3 0.9816 0.881573 0.18305  0.104294914966
 H3 0.050327 0.361238 0.28525  0.104294914966
 H3 0.050339 0.861245 0.28525  0.104294914966
 H3 0.55034 0.361239 0.28525  0.104294914966
 H3 0.550352 0.861244 0.28525  0.104294914966
 H3 0.261713 0.191094 0.2875  0.104294914966
 H3 0.261719 0.691102 0.28752  0.104294914966
 H3 0.761728 0.191093 0.2875  0.104294914966
 H3 0.761741 0.691098 0.28752  0.104294914966
 H3 0.189624 0.213089 0.18537  0.104294914966
 H3 0.189627 0.713096 0.18537  0.104294914966
 H3 0.689645 0.213086 0.18537  0.104294914966
 H3 0.689651 0.713092 0.18537  0.104294914966
 H3 0.140517 0.31177 0.3670  0.104294914966
 H3 0.140538 0.811774 0.36706  0.104294914966
 H3 0.64053 0.311773 0.36706  0.104294914966
 H3 0.640549 0.811775 0.36706  0.104294914966
 H3 0.079436 0.267723 0.42643  0.104294914966
 H3 0.079467 0.767727 0.42643  0.104294914966
 H3 0.579459 0.267724 0.42643  0.104294914966
 H3 0.579481 0.767727 0.42642  0.104294914966
 C1 0.332098 0.451584 0.67678  -0.552835918367
 C1 0.332118 0.951586 0.67678  -0.552835918367
 C1 0.832112 0.451583 0.67678  -0.552835918367
 C1 0.832136 0.951587 0.67678  -0.552835918367
 C2 0.432941 0.410212 0.70569  -0.0710809183673
 C2 0.432962 0.910215 0.70569  -0.0710809183673
 C2 0.932954 0.410211 0.70569  -0.0710809183673
 C2 0.932976 0.910215 0.70569  -0.0710809183673
 C2 0.471987 0.421836 0.76394  -0.0710809183673
 C2 0.472009 0.921841 0.7639  -0.0710809183673
 C2 0.972001 0.421834 0.76394  -0.0710809183673
 C2 0.972024 0.921842 0.7639  -0.0710809183673
 C3 0.41249 0.476326 0.79445  0.247794081633
 C3 0.412504 0.97633 0.79445  0.247794081633
 C3 0.91251 0.476327 0.79445  0.247794081633
 C3 0.912519 0.976331 0.79445  0.247794081633
 C2 0.309774 0.01709 0.76459  -0.0710809183673
 C2 0.309776 0.517091 0.76459  -0.0710809183673
 C2 0.809794 0.017093 0.76459  -0.0710809183673
 C2 0.809795 0.517092 0.76459  -0.0710809183673
 C2 0.269542 0.50482 0.70678  -0.0710809183673
 C2 0.269556 0.0 0.70678  -0.0710809183673
 C2 0.769562 0.504822 0.7067  -0.0710809183673
 C2 0.769576 0.0 0.7067  -0.0710809183673
 C4 0.044781 0.451473 0.888  -0.166835918367
 C4 0.044785 0.95148 0.88830  -0.166835918367
 C4 0.544788 0.451473 0.888  -0.166835918367
 C4 0.544798 0.951479 0.88830  -0.166835918367
 C5 0.986919 0.384536 0.91133  0.679354081633
 C5 0.986928 0.88454 0.91133  0.679354081633
 C5 0.48693 0.384535 0.91133  0.679354081633
 C5 0.48694 0.88454 0.91133  0.679354081633
 C1 0.167992 0.201584 0.82318  -0.552835918367
 C1 0.168 0.70159 0.82318  -0.552835918367
 C1 0.668006 0.201585 0.82318  -0.552835918367
 C1 0.668013 0.70159 0.82318  -0.552835918367
 C2 0.067149 0.160212 0.7942  -0.0710809183673
 C2 0.067155 0.660219 0.79427  -0.0710809183673
 C2 0.567163 0.160212 0.79427  -0.0710809183673
 C2 0.56717 0.660218 0.79427  -0.0710809183673
 C2 0.028091 0.171836 0.73602  -0.0710809183673
 C2 0.028098 0.671843 0.73602  -0.0710809183673
 C2 0.528105 0.171837 0.73602  -0.0710809183673
 C2 0.528112 0.671844 0.73602  -0.0710809183673
 C3 0.087581 0.226326 0.7055  0.247794081633
 C3 0.08759 0.726332 0.7055  0.247794081633
 C3 0.587599 0.226325 0.70551  0.247794081633
 C3 0.587609 0.72633 0.70551  0.247794081633
 C2 0.190294 0.267091 0.73537  -0.0710809183673
 C2 0.190304 0.767096 0.73537  -0.0710809183673
 C2 0.690311 0.26709 0.73537  -0.0710809183673
 C2 0.69032 0.767096 0.73537  -0.0710809183673
 C2 0.230538 0.254821 0.79318  -0.0710809183673
 C2 0.230547 0.754826 0.79318  -0.0710809183673
 C2 0.730556 0.254819 0.79318  -0.0710809183673
 C2 0.730565 0.754824 0.79318  -0.0710809183673
 C4 0.455312 0.201469 0.6116  -0.166835918367
 C4 0.45532 0.701476 0.61166  -0.166835918367
 C4 0.95532 0.201469 0.61166  -0.166835918367
 C4 0.955328 0.701475 0.61166  -0.166835918367
 C5 0.513202 0.134538 0.58863  0.679354081633
 C5 0.513204 0.634543 0.58863  0.679354081633
 C5 0.0 0.134539 0.58863  0.679354081633
 C5 0.0 0.634543 0.58863  0.679354081633
 C1 0.168013 0.048414 0.32319  -0.552835918367
 C1 0.168017 0.548418 0.32319  -0.552835918367
 C1 0.66803 0.048415 0.32319  -0.552835918367
 C1 0.668033 0.54842 0.32319  -0.552835918367
 C2 0.067164 0.089787 0.2942  -0.0710809183673
 C2 0.067168 0.589791 0.2942  -0.0710809183673
 C2 0.567178 0.089786 0.2942  -0.0710809183673
 C2 0.567183 0.589792 0.2942  -0.0710809183673
 C2 0.028092 0.078159 0.23604  -0.0710809183673
 C2 0.028102 0.578165 0.2360  -0.0710809183673
 C2 0.528108 0.078159 0.23604  -0.0710809183673
 C2 0.528117 0.578167 0.2360  -0.0710809183673
 C3 0.087584 0.02367 0.20553  0.247794081633
 C3 0.087586 0.523673 0.20553  0.247794081633
 C3 0.587601 0.02367 0.20553  0.247794081633
 C3 0.5876 0.523674 0.20553  0.247794081633
 C2 0.190302 0.482907 0.23538  -0.0710809183673
 C2 0.190313 0.982906 0.23538  -0.0710809183673
 C2 0.690322 0.482909 0.23538  -0.0710809183673
 C2 0.690334 0.982908 0.23538  -0.0710809183673
 C2 0.230555 0.995177 0.293  -0.0710809183673
 C2 0.230555 0.495178 0.293  -0.0710809183673
 C2 0.730575 0.995178 0.29319  -0.0710809183673
 C2 0.730574 0.495181 0.29319  -0.0710809183673
 C4 0.455295 0.048523 0.11168  -0.166835918367
 C4 0.455294 0.548528 0.11168  -0.166835918367
 C4 0.955306 0.048522 0.11168  -0.166835918367
 C4 0.955306 0.548528 0.11168  -0.166835918367
 C5 0.513167 0.115457 0.08864  0.679354081633
 C5 0.513168 0.615461 0.08864  0.679354081633
 C5 0.0 0.115457 0.08864  0.679354081633
 C5 0.0 0.615462 0.08864  0.679354081633
 C1 0.332069 0.298413 0.17679  -0.552835918367
 C1 0.332076 0.798418 0.17679  -0.552835918367
 C1 0.832087 0.298412 0.17679  -0.552835918367
 C1 0.832095 0.798417 0.17679  -0.552835918367
 C2 0.432913 0.339788 0.20569  -0.0710809183673
 C2 0.432922 0.839792 0.20569  -0.0710809183673
 C2 0.932929 0.339787 0.205  -0.0710809183673
 C2 0.932937 0.839792 0.20569  -0.0710809183673
 C2 0.471982 0.328166 0.2639  -0.0710809183673
 C2 0.471993 0.828171 0.26394  -0.0710809183673
 C2 0.971998 0.328164 0.2639  -0.0710809183673
 C2 0.972009 0.82817 0.26394  -0.0710809183673
 C3 0.412499 0.273677 0.29446  0.247794081633
 C3 0.412509 0.773683 0.29446  0.247794081633
 C3 0.912511 0.273677 0.29446  0.247794081633
 C3 0.912525 0.773682 0.29446  0.247794081633
 C2 0.309781 0.23291 0.26461  -0.0710809183673
 C2 0.309789 0.732917 0.26461  -0.0710809183673
 C2 0.8098 0.232908 0.26461  -0.0710809183673
 C2 0.809811 0.732913 0.26461  -0.0710809183673
 C2 0.269527 0.245179 0.206  -0.0710809183673
 C2 0.269532 0.745185 0.20680  -0.0710809183673
 C2 0.769545 0.245177 0.20679  -0.0710809183673
 C2 0.769553 0.745183 0.206  -0.0710809183673
 C4 0.044821 0.298526 0.38830  -0.166835918367
 C4 0.044845 0.79853 0.38830  -0.166835918367
 C4 0.544837 0.298527 0.38830  -0.166835918367
 C4 0.544858 0.798531 0.38830  -0.166835918367
 C5 0.986982 0.365466 0.41134  0.679354081633
 C5 0.98701 0.865469 0.41134  0.679354081633
 C5 0.486994 0.365465 0.41134  0.679354081633
 C5 0.487021 0.865469 0.41134  0.679354081633
 N1 0.452148 0.492214 0.85107  -0.346375918367
 N1 0.452163 0.992217 0.85107  -0.346375918367
 N1 0.952172 0.492214 0.85107  -0.346375918367
 N1 0.952176 0.992218 0.85107  -0.346375918367
 N1 0.047911 0.242215 0.64889  -0.346375918367
 N1 0.047923 0.74222 0.64889  -0.346375918367
 N1 0.547932 0.242214 0.64889  -0.346375918367
 N1 0.547944 0.742219 0.64889  -0.346375918367
 N1 0.047909 0.007782 0.14891  -0.346375918367
 N1 0.047912 0.507785 0.14891  -0.346375918367
 N1 0.547925 0.007782 0.14891  -0.346375918367
 N1 0.547924 0.507785 0.14891  -0.346375918367
 N1 0.45218 0.257792 0.35108  -0.346375918367
 N1 0.452194 0.757797 0.35108  -0.346375918367
 N1 0.952187 0.257793 0.35108  -0.346375918367
 N1 0.952208 0.757797 0.35108  -0.346375918367
 O1 0.415577 0.4114 0.5574  -0.945685918367
 O1 0.415598 0.911401 0.5574  -0.945685918367
 O1 0.91559 0.4114 0.5574  -0.945685918367
 O1 0.91561 0.911401 0.55741  -0.945685918367
 O2 0.159748 0.36352 0.59259  -0.809985918367
 O2 0.159768 0.863521 0.5925  -0.809985918367
 O2 0.65976 0.363519 0.5925  -0.809985918367
 O2 0.659782 0.863522 0.59259  -0.809985918367
 O1 0.18727 0.503199 0.56688  -0.945685918367
 O1 0.18729 0.0 0.56688  -0.945685918367
 O1 0.687283 0.503198 0.56688  -0.945685918367
 O1 0.687303 0.0 0.56688  -0.945685918367
 O3 0.356629 0.371598 0.89514  -0.511205918367
 O3 0.356638 0.871605 0.89514  -0.511205918367
 O3 0.85664 0.371601 0.89514  -0.511205918367
 O3 0.856652 0.871604 0.89514  -0.511205918367
 O4 0.064 0.347204 0.94268  -0.528115918367
 O4 0.064014 0.847204 0.94268  -0.528115918367
 O4 0.564013 0.347204 0.94268  -0.528115918367
 O4 0.564025 0.847205 0.94268  -0.528115918367
 O1 0.084529 0.161399 0.94255  -0.945685918367
 O1 0.084537 0.661403 0.94255  -0.945685918367
 O1 0.584541 0.1614 0.94255  -0.945685918367
 O1 0.58455 0.661403 0.94255  -0.945685918367
 O2 0.340361 0.113515 0.90738  -0.809985918367
 O2 0.340368 0.613519 0.90738  -0.809985918367
 O2 0.840373 0.113516 0.90738  -0.809985918367
 O2 0.840381 0.613519 0.90738  -0.809985918367
 O1 0.312837 0.25319 0.93309  -0.945685918367
 O1 0.312846 0.753195 0.93309  -0.945685918367
 O1 0.81285 0.253191 0.93309  -0.945685918367
 O1 0.812859 0.753195 0.93309  -0.945685918367
 O3 0.143496 0.121611 0.60483  -0.511205918367
 O3 0.143497 0.621614 0.60483  -0.511205918367
 O3 0.643507 0.121609 0.60483  -0.511205918367
 O3 0.643508 0.621612 0.60483  -0.511205918367
 O4 0.436144 0.097201 0.55728  -0.528115918367
 O4 0.436141 0.597205 0.55728  -0.528115918367
 O4 0.936157 0.097201 0.55728  -0.528115918367
 O4 0.936154 0.597206 0.55728  -0.528115918367
 O1 0.084564 0.088594 0.44256  -0.945685918367
 O1 0.084562 0.588597 0.44256  -0.945685918367
 O1 0.584576 0.088594 0.44256  -0.945685918367
 O1 0.584574 0.588597 0.44256  -0.945685918367
 O2 0.340391 0.136482 0.40738  -0.809985918367
 O2 0.340389 0.636485 0.40738  -0.809985918367
 O2 0.840403 0.136482 0.4073  -0.809985918367
 O2 0.840403 0.636486 0.4073  -0.809985918367
 O1 0.312886 0.996808 0.43310  -0.945685918367
 O1 0.312882 0.496809 0.43310  -0.945685918367
 O1 0.812899 0.996808 0.43310  -0.945685918367
 O1 0.812895 0.49681 0.43310  -0.945685918367
 O3 0.143454 0.12839 0.10484  -0.511205918367
 O3 0.143458 0.628395 0.10484  -0.511205918367
 O3 0.643468 0.12839 0.10484  -0.511205918367
 O3 0.643472 0.628393 0.10484  -0.511205918367
 O4 0.436092 0.152794 0.05730  -0.528115918367
 O4 0.436098 0.652795 0.05729  -0.528115918367
 O4 0.936102 0.152796 0.05730  -0.528115918367
 O4 0.93611 0.652795 0.05729  -0.528115918367
 O1 0.415531 0.338596 0.05742  -0.945685918367
 O1 0.415538 0.8386 0.05742  -0.945685918367
 O1 0.915543 0.338597 0.05742  -0.945685918367
 O1 0.91555 0.8386 0.05742  -0.945685918367
 O2 0.159697 0.386479 0.092  -0.809985918367
 O2 0.159703 0.886482 0.09259  -0.809985918367
 O2 0.659711 0.386478 0.092  -0.809985918367
 O2 0.659717 0.886481 0.092  -0.809985918367
 O1 0.187227 0.246802 0.06689  -0.945685918367
 O1 0.187233 0.746806 0.06689  -0.945685918367
 O1 0.68724 0.246802 0.06689  -0.945685918367
 O1 0.687246 0.746805 0.06689  -0.945685918367
 O3 0.356693 0.378408 0.39515  -0.511205918367
 O3 0.356721 0.878414 0.39515  -0.511205918367
 O3 0.856707 0.378411 0.39515  -0.511205918367
 O3 0.856735 0.878415 0.39515  -0.511205918367
 O4 0.064082 0.402793 0.44268  -0.528115918367
 O4 0.064114 0.902795 0.44268  -0.528115918367
 O4 0.564093 0.402792 0.44268  -0.528115918367
 O4 0.564123 0.902794 0.44268  -0.528115918367
