#======================================================================

# CRYSTAL DATA

#----------------------------------------------------------------------

data_VESTA_phase_1


_pd_phase_name                         MOF
_cell_length_a                         15.29500
_cell_length_b                         19.77900
_cell_length_c                         15.02000
_cell_angle_alpha                      109.18500
_cell_angle_beta                       100.98400
_cell_angle_gamma                      90.01100
_symmetry_space_group_name_H-M         "P 1"
_symmetry_Int_Tables_number            1

loop_
_symmetry_equiv_pos_as_xyz
   "x, y, z"

loop_
   _atom_site_label
   _atom_site_fract_x
   _atom_site_fract_y
   _atom_site_fract_z
 _atom_site_charge
 Cd1 2.4e-05 0.250012 0.50002  0.81602296875
 Cd1 2.1e-05 0.75 0.50002  0.81602296875
 Cd1 0.500015 0.250012 0.50002  0.81602296875
 Cd1 0.500013 0.75 0.50002  0.81602296875
 Cd1 0.250022 1.7e-05 0.50002  0.81602296875
 Cd1 0.250019 0.500005 0.50002  0.81602296875
 Cd1 0.750015 1.8e-05 0.50002  0.81602296875
 Cd1 0.75001 0.500005 0.50002  0.81602296875
 H1 0.413903 0.222126 0.667  0.10249046875
 H1 0.413897 0.722114 0.66739  0.10249046875
 H1 0.913894 0.222125 0.66739  0.10249046875
 H1 0.913887 0.722114 0.66739  0.10249046875
 H1 0.375317 0.283597 0.82584  0.10249046875
 H1 0.375311 0.783586 0.82584  0.10249046875
 H1 0.875305 0.283597 0.82584  0.10249046875
 H1 0.875301 0.783585 0.8258  0.10249046875
 H1 0.440148 0.485835 0.79263  0.10249046875
 H1 0.440149 0.985823 0.7926  0.10249046875
 H1 0.940138 0.485834 0.79263  0.10249046875
 H1 0.940141 0.985823 0.79263  0.10249046875
 H1 0.476642 0.414816 0.63354  0.10249046875
 H1 0.476642 0.914804 0.6335  0.10249046875
 H1 0.976634 0.414816 0.63354  0.10249046875
 H1 0.976634 0.914804 0.63354  0.10249046875
 H1 0.335897 0.38835 0.33259  0.10249046875
 H1 0.335896 0.888337 0.33259  0.10249046875
 H1 0.835889 0.38835 0.33259  0.10249046875
 H1 0.835888 0.888338 0.33259  0.10249046875
 H1 0.374403 0.370569 0.17407  0.10249046875
 H1 0.374402 0.870556 0.17407  0.10249046875
 H1 0.874395 0.370569 0.17407  0.10249046875
 H1 0.874395 0.870557 0.17407  0.10249046875
 H1 0.310085 0.089453 0.20716  0.10249046875
 H1 0.310081 0.58944 0.2071  0.10249046875
 H1 0.810077 0.089453 0.20716  0.10249046875
 H1 0.810073 0.589441 0.2071  0.10249046875
 H1 0.273677 0.098023 0.36635  0.10249046875
 H1 0.273673 0.59801 0.36635  0.10249046875
 H1 0.773668 0.098023 0.36635  0.10249046875
 H1 0.773666 0.598011 0.36635  0.10249046875
 H1 0.086134 0.277901 0.33264  0.10249046875
 H1 0.086134 0.777887 0.33264  0.10249046875
 H1 0.586125 0.277901 0.33264  0.10249046875
 H1 0.586122 0.777888 0.33264  0.10249046875
 H1 0.124727 0.216429 0.17420  0.10249046875
 H1 0.124726 0.716415 0.17420  0.10249046875
 H1 0.624717 0.216429 0.17420  0.10249046875
 H1 0.624713 0.716415 0.17420  0.10249046875
 H1 0.059901 0.014191 0.20741  0.10249046875
 H1 0.059895 0.514178 0.20741  0.10249046875
 H1 0.559893 0.014191 0.20741  0.10249046875
 H1 0.559889 0.514178 0.20741  0.10249046875
 H1 0.023401 0.08521 0.366  0.10249046875
 H1 0.023397 0.585197 0.36649  0.10249046875
 H1 0.523393 0.08521 0.366  0.10249046875
 H1 0.52339 0.585197 0.366  0.10249046875
 H1 0.164141 0.111672 0.6674  0.10249046875
 H1 0.164136 0.61166 0.6674  0.10249046875
 H1 0.664134 0.111673 0.66745  0.10249046875
 H1 0.664129 0.61166 0.6674  0.10249046875
 H1 0.125641 0.129454 0.82597  0.10249046875
 H1 0.125634 0.62944 0.82597  0.10249046875
 H1 0.625634 0.129455 0.82597  0.10249046875
 H1 0.625628 0.629441 0.82597  0.10249046875
 H1 0.189964 0.41057 0.7928  0.10249046875
 H1 0.189963 0.910558 0.7928  0.10249046875
 H1 0.689955 0.410571 0.79288  0.10249046875
 H1 0.689954 0.910559 0.79288  0.10249046875
 H1 0.226366 0.402001 0.63369  0.10249046875
 H1 0.226364 0.901988 0.63369  0.10249046875
 H1 0.726357 0.402001 0.63369  0.10249046875
 H1 0.726355 0.901989 0.63369  0.10249046875
 C1 0.41985 0.280462 0.6979  0.18031171875
 C1 0.419847 0.78045 0.69795  0.18031171875
 C1 0.919842 0.280461 0.69795  0.18031171875
 C1 0.919841 0.78045 0.69795  0.18031171875
 C2 0.398656 0.315442 0.78690  -0.18431328125
 C2 0.398651 0.815431 0.78690  -0.18431328125
 C2 0.898644 0.315442 0.78690  -0.18431328125
 C2 0.898638 0.81543 0.78690  -0.18431328125
 C3 0.407081 0.390696 0.8244  0.07979796875
 C3 0.407079 0.890684 0.8244  0.07979796875
 C3 0.90707 0.390695 0.82442  0.07979796875
 C3 0.907073 0.890684 0.8244  0.07979796875
 C2 0.434111 0.427456 0.7675  -0.18431328125
 C2 0.43411 0.927444 0.7675  -0.18431328125
 C2 0.9341 0.427455 0.76751  -0.18431328125
 C2 0.934097 0.927444 0.76751  -0.18431328125
 C1 0.454425 0.388286 0.67931  0.18031171875
 C1 0.454425 0.888274 0.67931  0.18031171875
 C1 0.954418 0.388285 0.67931  0.18031171875
 C1 0.95442 0.888273 0.67931  0.18031171875
 C4 0.389254 0.429353 0.91976  0.15634796875
 C4 0.389252 0.929341 0.91976  0.15634796875
 C4 0.889243 0.429353 0.91976  0.15634796875
 C4 0.889243 0.929341 0.91976  0.15634796875
 C5 0.305489 0.325036 0.44537  0.35233296875
 C5 0.305488 0.825024 0.44537  0.35233296875
 C5 0.805482 0.325036 0.4453  0.35233296875
 C5 0.805479 0.825024 0.44537  0.35233296875
 C1 0.330056 0.431414 0.30200  0.18031171875
 C1 0.330054 0.931401 0.30200  0.18031171875
 C1 0.830044 0.431413 0.30200  0.18031171875
 C1 0.830049 0.931403 0.30200  0.18031171875
 C2 0.351197 0.421899 0.21300  -0.18431328125
 C2 0.351196 0.921887 0.21300  -0.18431328125
 C2 0.851192 0.4219 0.2130  -0.18431328125
 C2 0.851186 0.921886 0.21300  -0.18431328125
 C3 0.342908 0.478397 0.17544  0.07979796875
 C3 0.342907 0.978384 0.1754  0.07979796875
 C3 0.842895 0.478396 0.17543  0.07979796875
 C3 0.842901 0.978385 0.17544  0.07979796875
 C2 0.316028 0.043637 0.23233  -0.18431328125
 C2 0.316023 0.543624 0.23233  -0.18431328125
 C2 0.816017 0.043637 0.2323  -0.18431328125
 C2 0.816019 0.543626 0.23233  -0.18431328125
 C1 0.295768 0.048594 0.32059  0.18031171875
 C1 0.295765 0.548581 0.32059  0.18031171875
 C1 0.795762 0.048595 0.32059  0.18031171875
 C1 0.795753 0.548581 0.32059  0.18031171875
 C4 0.36075 0.469407 0.08009  0.15634796875
 C4 0.360749 0.969395 0.08009  0.15634796875
 C4 0.860741 0.469407 0.08009  0.15634796875
 C4 0.860741 0.969395 0.08009  0.15634796875
 C5 0.444455 0.102387 0.55485  0.35233296875
 C5 0.444452 0.602375 0.55485  0.35233296875
 C5 0.944449 0.102387 0.55485  0.35233296875
 C5 0.944444 0.602375 0.55485  0.35233296875
 C1 0.080192 0.219564 0.30208  0.18031171875
 C1 0.080188 0.719551 0.30208  0.18031171875
 C1 0.580182 0.219564 0.30208  0.18031171875
 C1 0.58018 0.719551 0.30208  0.18031171875
 C2 0.101386 0.184584 0.2131  -0.18431328125
 C2 0.101388 0.68457 0.21314  -0.18431328125
 C2 0.601377 0.184584 0.21313  -0.18431328125
 C2 0.601373 0.684571 0.21313  -0.18431328125
 C3 0.092968 0.10933 0.17562  0.07979796875
 C3 0.092962 0.609317 0.1756  0.07979796875
 C3 0.592959 0.10933 0.17562  0.07979796875
 C3 0.592955 0.609317 0.17562  0.07979796875
 C2 0.065934 0.07257 0.2325  -0.18431328125
 C2 0.065933 0.572557 0.2325  -0.18431328125
 C2 0.565926 0.07257 0.2325  -0.18431328125
 C2 0.565922 0.572557 0.23252  -0.18431328125
 C1 0.04562 0.11174 0.32073  0.18031171875
 C1 0.045613 0.611728 0.32073  0.18031171875
 C1 0.545611 0.11174 0.32073  0.18031171875
 C1 0.545608 0.611727 0.32073  0.18031171875
 C4 0.110794 0.070672 0.08028  0.15634796875
 C4 0.110791 0.570658 0.08028  0.15634796875
 C4 0.610785 0.070672 0.08028  0.15634796875
 C4 0.610781 0.570659 0.08028  0.15634796875
 C5 0.19455 0.174986 0.55466  0.35233296875
 C5 0.194546 0.674974 0.55466  0.35233296875
 C5 0.694541 0.174986 0.55466  0.35233296875
 C5 0.694538 0.674974 0.55466  0.35233296875
 C1 0.169992 0.068611 0.69804  0.18031171875
 C1 0.169985 0.568598 0.69804  0.18031171875
 C1 0.669986 0.068612 0.69804  0.18031171875
 C1 0.669979 0.568599 0.69804  0.18031171875
 C2 0.148841 0.078122 0.78703  -0.18431328125
 C2 0.148837 0.57811 0.78703  -0.18431328125
 C2 0.648832 0.078123 0.78703  -0.18431328125
 C2 0.648829 0.57811 0.78703  -0.18431328125
 C3 0.157145 0.021628 0.82461  0.07979796875
 C3 0.157139 0.521615 0.82461  0.07979796875
 C3 0.657139 0.021629 0.82461  0.07979796875
 C3 0.657132 0.521616 0.82461  0.07979796875
 C2 0.184014 0.456385 0.76771  -0.18431328125
 C2 0.184012 0.956372 0.76771  -0.18431328125
 C2 0.684005 0.456385 0.76771  -0.18431328125
 C2 0.684002 0.956373 0.76771  -0.18431328125
 C1 0.204281 0.451431 0.67945  0.18031171875
 C1 0.204281 0.951419 0.67945  0.18031171875
 C1 0.704273 0.451431 0.67945  0.18031171875
 C1 0.704274 0.95142 0.67945  0.18031171875
 C4 0.139298 0.030616 0.91995  0.15634796875
 C4 0.139293 0.530603 0.91995  0.15634796875
 C4 0.63929 0.030616 0.91995  0.15634796875
 C4 0.639286 0.530604 0.91995  0.15634796875
 C5 0.055584 0.397636 0.44518  0.35233296875
 C5 0.055582 0.897624 0.44518  0.35233296875
 C5 0.555575 0.397636 0.44518  0.35233296875
 C5 0.555575 0.897624 0.44518  0.35233296875
 S1 0.333481 0.245213 0.38674  -0.39802203125
 S1 0.333479 0.745201 0.38674  -0.39802203125
 S1 0.833473 0.245213 0.38674  -0.39802203125
 S1 0.833471 0.745201 0.38674  -0.39802203125
 S1 0.416466 0.051804 0.61346  -0.39802203125
 S1 0.416462 0.551792 0.61346  -0.39802203125
 S1 0.916458 0.051804 0.61346  -0.39802203125
 S1 0.916454 0.551791 0.61346  -0.39802203125
 S1 0.16656 0.25481 0.61329  -0.39802203125
 S1 0.166556 0.754798 0.61329  -0.39802203125
 S1 0.66655 0.25481 0.61329  -0.39802203125
 S1 0.666547 0.754798 0.61329  -0.39802203125
 S1 0.083575 0.448219 0.38657  -0.39802203125
 S1 0.083574 0.948206 0.38657  -0.39802203125
 S1 0.583567 0.448218 0.38657  -0.39802203125
 S1 0.583566 0.948207 0.3865  -0.39802203125
 S2 0.374907 0.385819 0.99991  0.05744796875
 S2 0.374904 0.885807 0.99991  0.05744796875
 S2 0.874883 0.385817 0.99990  0.05744796875
 S2 0.874891 0.885806 0.99991  0.05744796875
 S2 0.125148 0.114209 0.00012  0.05744796875
 S2 0.125143 0.614195 0.00012  0.05744796875
 S2 0.625135 0.114208 0.00012  0.05744796875
 S2 0.625125 0.614195 0.00012  0.05744796875
 N1 0.448898 0.315883 0.64529  -0.31508703125
 N1 0.448895 0.815871 0.64529  -0.31508703125
 N1 0.948889 0.315882 0.64529  -0.31508703125
 N1 0.948885 0.81587 0.64529  -0.31508703125
 N2 0.383343 0.99966 0.95462  -0.21744203125
 N2 0.383341 0.499647 0.95462  -0.21744203125
 N2 0.883338 0.99966 0.95462  -0.21744203125
 N2 0.883339 0.499648 0.95462  -0.21744203125
 N3 0.284745 0.382821 0.48732  -0.49662203125
 N3 0.284743 0.882808 0.48732  -0.49662203125
 N3 0.784737 0.382821 0.48732  -0.49662203125
 N3 0.784735 0.882809 0.48732  -0.49662203125
 N1 0.301183 0.493195 0.3546  -0.31508703125
 N1 0.301183 0.993183 0.3546  -0.31508703125
 N1 0.801177 0.493196 0.3546  -0.31508703125
 N1 0.801174 0.993183 0.35467  -0.31508703125
 N2 0.366848 0.022303 0.04525  -0.21744203125
 N2 0.366843 0.52229 0.04525  -0.21744203125
 N2 0.866845 0.022304 0.04525  -0.21744203125
 N2 0.866848 0.522291 0.04525  -0.21744203125
 N3 0.465201 0.139258 0.51293  -0.49662203125
 N3 0.465199 0.639246 0.51293  -0.49662203125
 N3 0.965195 0.139258 0.51293  -0.49662203125
 N3 0.96519 0.639245 0.51293  -0.49662203125
 N1 0.051142 0.184144 0.35475  -0.31508703125
 N1 0.05114 0.684131 0.35475  -0.31508703125
 N1 0.551133 0.184143 0.35475  -0.31508703125
 N1 0.55113 0.684131 0.35475  -0.31508703125
 N2 0.116701 0.500364 0.04542  -0.21744203125
 N2 0.116699 0.0 0.04542  -0.21744203125
 N2 0.616699 0.500365 0.04543  -0.21744203125
 N2 0.616696 0.0 0.04543  -0.21744203125
 N3 0.215294 0.117201 0.51272  -0.49662203125
 N3 0.215291 0.617189 0.51272  -0.49662203125
 N3 0.715286 0.117201 0.51272  -0.49662203125
 N3 0.715282 0.617189 0.51272  -0.49662203125
 N1 0.198855 0.006827 0.64536  -0.31508703125
 N1 0.198852 0.506815 0.64536  -0.31508703125
 N1 0.698847 0.006828 0.64536  -0.31508703125
 N1 0.698843 0.506815 0.64536  -0.31508703125
 N2 0.133192 0.477719 0.95479  -0.21744203125
 N2 0.133192 0.977708 0.95479  -0.21744203125
 N2 0.633192 0.477721 0.95480  -0.21744203125
 N2 0.633187 0.977709 0.95479  -0.21744203125
 N3 0.034837 0.360766 0.48711  -0.49662203125
 N3 0.034835 0.860753 0.48711  -0.49662203125
 N3 0.534828 0.360766 0.48711  -0.49662203125
 N3 0.534828 0.860754 0.48711  -0.49662203125
