#======================================================================

# CRYSTAL DATA

#----------------------------------------------------------------------

data_VESTA_phase_1


_pd_phase_name                         MOF
_cell_length_a                         13.92600
_cell_length_b                         15.05400
_cell_length_c                         15.04100
_cell_angle_alpha                      117.17500
_cell_angle_beta                       96.39800
_cell_angle_gamma                      96.64000
_symmetry_space_group_name_H-M         "P 1"
_symmetry_Int_Tables_number            1

loop_
_symmetry_equiv_pos_as_xyz
   "x, y, z"

loop_
   _atom_site_label
   _atom_site_fract_x
   _atom_site_fract_y
   _atom_site_fract_z
 _atom_site_charge
 Zn1 0.145402 0.627392 0.33536  0.925057045455
 Zn1 0.354645 0.665 0.37232  0.925057045455
 Zn1 0.854625 0.372625 0.6646  0.925057045455
 Zn1 0.645381 0.335016 0.62767  0.925057045455
 H1 0.378097 0.641317 0.05753  0.123441420455
 H1 0.0 0.599153 0.45810  0.123441420455
 H1 0.978868 0.656568 0.21313  0.123441420455
 H1 0.83081 0.610714 0.47479  0.123441420455
 H1 0.406102 0.663371 0.88516  0.123441420455
 H1 0.034486 0.60599 0.80491  0.123441420455
 H1 0.802054 0.670598 0.21871  0.123441420455
 H1 0.398932 0.685726 0.7085  0.123441420455
 H1 0.121792 0.941509 0.35752  0.123441420455
 H1 0.49323 0.541962 0.40023  0.123441420455
 H1 0.522351 0.787174 0.34335  0.123441420455
 H1 0.668134 0.524891 0.38864  0.123441420455
 H1 0.093792 0.114034 0.33631  0.123441420455
 H1 0.465453 0.19584 0.39389  0.123441420455
 H1 0.69917 0.781267 0.32938  0.123441420455
 H1 0.100974 0.291094 0.31491  0.123441420455
 H1 0.621922 0.358704 0.94246  0.123441420455
 H1 0.99422 0.400869 0.54189  0.123441420455
 H1 0.021159 0.343451 0.7868  0.123441420455
 H1 0.169215 0.389308 0.5252  0.123441420455
 H1 0.593917 0.336654 0.11483  0.123441420455
 H1 0.965534 0.394034 0.19508  0.123441420455
 H1 0.197972 0.32942 0.7812  0.123441420455
 H1 0.60109 0.314299 0.29149  0.123441420455
 H1 0.87823 0.05851 0.64247  0.123441420455
 H1 0.506796 0.458056 0.59976  0.123441420455
 H1 0.477673 0.212841 0.65664  0.123441420455
 H1 0.331893 0.475128 0.61135  0.123441420455
 H1 0.906231 0.885988 0.66369  0.123441420455
 H1 0.534569 0.804176 0.60610  0.123441420455
 H1 0.300854 0.218749 0.67061  0.123441420455
 H1 0.89905 0.708929 0.68509  0.123441420455
 C1 0.225415 0.608588 0.06534  -0.0848729545455
 C2 0.301519 0.627982 0.02251  -0.158919621212
 C3 0.957554 0.614749 0.40696  0.178677045455
 C4 0.801849 0.643152 0.34863  0.0513537121212
 C3 0.942757 0.648206 0.27026  0.178677045455
 C4 0.26936 0.631815 0.9308  0.0513537121212
 C1 0.172743 0.639527 0.76230  -0.0848729545455
 C1 0.251168 0.67085 0.63507  -0.0848729545455
 C5 0.232099 0.608759 0.16440  0.696067045455
 C1 0.163707 0.615096 0.90671  -0.0848729545455
 C2 0.860203 0.621077 0.41536  -0.158919621212
 C2 0.325985 0.651085 0.86796  -0.158919621212
 C2 0.32038 0.67281 0.70852  -0.158919621212
 C2 0.114557 0.618861 0.8227  -0.158919621212
 C2 0.844923 0.656455 0.27449  -0.158919621212
 C4 0.278433 0.655219 0.78320  0.0513537121212
 C5 0.263899 0.678585 0.54224  0.696067045455
 C1 0.274476 0.934209 0.39009  -0.0848729545455
 C2 0.198373 0.976828 0.37093  -0.158919621212
 C3 0.541955 0.59307 0.38476  0.178677045455
 C4 0.698242 0.651186 0.35654  0.0513537121212
 C3 0.557967 0.72991 0.35161  0.178677045455
 C4 0.230534 0.068806 0.36754  0.0513537121212
 C1 0.327187 0.238038 0.36066  -0.0848729545455
 C1 0.248758 0.365294 0.33012  -0.0848729545455
 C5 0.267835 0.835084 0.3896  0.696067045455
 C1 0.336198 0.093348 0.38433  -0.0848729545455
 C2 0.639251 0.58446 0.37841  -0.158919621212
 C2 0.173916 0.131569 0.34863  -0.158919621212
 C2 0.179539 0.291394 0.32778  -0.158919621212
 C2 0.385371 0.17766 0.38098  -0.158919621212
 C2 0.655806 0.725505 0.34340  -0.158919621212
 C4 0.221485 0.216692 0.34491  0.0513537121212
 C5 0.236072 0.458242 0.32285  0.696067045455
 C1 0.774605 0.391429 0.93465  -0.0848729545455
 C2 0.6985 0.372039 0.97748  -0.158919621212
 C3 0.042472 0.385272 0.59303  0.178677045455
 C4 0.198177 0.356868 0.6513  0.0513537121212
 C3 0.05727 0.351814 0.72973  0.178677045455
 C4 0.730659 0.368208 0.06919  0.0513537121212
 C1 0.827277 0.360497 0.23770  -0.0848729545455
 C1 0.748855 0.329176 0.36493  -0.0848729545455
 C5 0.767925 0.391254 0.83559  0.696067045455
 C1 0.836311 0.384926 0.09328  -0.0848729545455
 C2 0.139822 0.378944 0.58464  -0.158919621212
 C2 0.674035 0.34894 0.13204  -0.158919621212
 C2 0.679642 0.327216 0.29147  -0.158919621212
 C2 0.885462 0.381162 0.17723  -0.158919621212
 C2 0.155103 0.343564 0.72551  -0.158919621212
 C4 0.721587 0.344806 0.21679  0.0513537121212
 C5 0.736127 0.321442 0.45775  0.696067045455
 C1 0.725546 0.065808 0.60990  -0.0848729545455
 C2 0.801649 0.02319 0.62906  -0.158919621212
 C3 0.45807 0.406947 0.61523  0.178677045455
 C4 0.301784 0.348832 0.64345  0.0513537121212
 C3 0.442057 0.270106 0.64838  0.178677045455
 C4 0.769488 0.931213 0.6324  0.0513537121212
 C1 0.672836 0.76198 0.63934  -0.0848729545455
 C1 0.751267 0.634727 0.66988  -0.0848729545455
 C5 0.732189 0.164931 0.61036  0.696067045455
 C1 0.663824 0.90667 0.61566  -0.0848729545455
 C2 0.360775 0.415559 0.62158  -0.158919621212
 C2 0.826106 0.868452 0.65137  -0.158919621212
 C2 0.820485 0.708628 0.67222  -0.158919621212
 C2 0.614651 0.822356 0.6190  -0.158919621212
 C2 0.344218 0.274512 0.65659  -0.158919621212
 C4 0.778538 0.783328 0.65509  0.0513537121212
 C5 0.763953 0.541779 0.67715  0.696067045455
 S1 0.130529 0.64828 0.65372  0.0714182954545
 S1 0.109562 0.59228 0.99504  0.0714182954545
 S1 0.369409 0.347023 0.35246  0.0714182954545
 S1 0.390329 0.005052 0.40669  0.0714182954545
 S1 0.869493 0.351746 0.34628  0.0714182954545
 S1 0.890457 0.407739 0.00496  0.0714182954545
 S1 0.630615 0.652994 0.64753  0.0714182954545
 S1 0.609694 0.994965 0.59330  0.0714182954545
 N1 0.998486 0.628192 0.33581  -0.303182954545
 N1 0.50162 0.664364 0.37144  -0.303182954545
 N1 0.00154 0.371828 0.66418  -0.303182954545
 N1 0.498405 0.335652 0.62855  -0.303182954545
 O1 0.349628 0.686924 0.52202  -0.590695454545
 O1 0.15029 0.585863 0.18758  -0.590695454545
 O1 0.183636 0.673011 0.48779  -0.590695454545
 O1 0.316922 0.634017 0.21899  -0.590695454545
 O1 0.150372 0.478317 0.31485  -0.590695454545
 O1 0.349683 0.812247 0.41239  -0.590695454545
 O1 0.316373 0.512936 0.32845  -0.590695454545
 O1 0.18307 0.780144 0.36430  -0.590695454545
 O1 0.650397 0.313097 0.47797  -0.590695454545
 O1 0.849737 0.414143 0.81241  -0.590695454545
 O1 0.816392 0.327025 0.51221  -0.590695454545
 O1 0.683104 0.365999 0.78100  -0.590695454545
 O1 0.849655 0.521709 0.68516  -0.590695454545
 O1 0.650341 0.187769 0.58760  -0.590695454545
 O1 0.683651 0.487082 0.67154  -0.590695454545
 O1 0.816955 0.219869 0.63569  -0.590695454545
