#======================================================================

# CRYSTAL DATA

#----------------------------------------------------------------------

data_VESTA_phase_1


_pd_phase_name                         MOF
_cell_length_a                         17.55500
_cell_length_b                         17.54500
_cell_length_c                         15.91300
_cell_angle_alpha                      90.00000
_cell_angle_beta                       89.99900
_cell_angle_gamma                      92.60200
_symmetry_space_group_name_H-M         "P 1"
_symmetry_Int_Tables_number            1

loop_
_symmetry_equiv_pos_as_xyz
   "x, y, z"

loop_
   _atom_site_label
   _atom_site_fract_x
   _atom_site_fract_y
   _atom_site_fract_z
 _atom_site_charge
 Cd1 0.464938 0.034973 0.32065  0.897105555556
 Cd1 0.46494 0.534963 0.32065  0.897105555556
 Cd1 0.964948 0.034973 0.32065  0.897105555556
 Cd1 0.96495 0.534963 0.32065  0.897105555556
 Cd2 0.173086 0.32681 0.18737  0.840255555556
 Cd2 0.173088 0.8268 0.18737  0.840255555556
 Cd2 0.673096 0.32681 0.18737  0.840255555556
 Cd2 0.673098 0.8268 0.18737  0.840255555556
 Cd2 0.320276 0.179688 0.27074  0.840255555556
 Cd2 0.320279 0.679678 0.27074  0.840255555556
 Cd2 0.820286 0.179688 0.27074  0.840255555556
 Cd2 0.820288 0.679678 0.27074  0.840255555556
 Cd1 0.03507 0.464995 0.82063  0.897105555556
 Cd1 0.035072 0.964985 0.82063  0.897105555556
 Cd1 0.535079 0.464995 0.82063  0.897105555556
 Cd1 0.535082 0.964985 0.82063  0.897105555556
 Cd2 0.326921 0.173163 0.68737  0.840255555556
 Cd2 0.326924 0.673153 0.68737  0.840255555556
 Cd2 0.826931 0.173163 0.68737  0.840255555556
 Cd2 0.826933 0.673153 0.68737  0.840255555556
 Cd2 0.179731 0.320283 0.77070  0.840255555556
 Cd2 0.179734 0.820273 0.77070  0.840255555556
 Cd2 0.679741 0.320283 0.77070  0.840255555556
 Cd2 0.679743 0.820273 0.77070  0.840255555556
 H1 0.347527 0.378316 0.25761  0.0699738888889
 H1 0.347529 0.878307 0.2576  0.0699738888889
 H1 0.847537 0.378316 0.25761  0.0699738888889
 H1 0.847539 0.878307 0.25761  0.0699738888889
 H1 0.184904 0.034507 0.18792  0.0699738888889
 H1 0.184907 0.534498 0.18792  0.0699738888889
 H1 0.684914 0.034507 0.18792  0.0699738888889
 H1 0.684916 0.534498 0.18792  0.0699738888889
 H1 0.152471 0.121652 0.75757  0.0699738888889
 H1 0.152474 0.621643 0.75757  0.0699738888889
 H1 0.652481 0.121652 0.75757  0.0699738888889
 H1 0.652483 0.621643 0.75757  0.0699738888889
 H1 0.315104 0.465467 0.68789  0.0699738888889
 H1 0.315106 0.965457 0.68789  0.0699738888889
 H1 0.815113 0.465467 0.68789  0.0699738888889
 H1 0.815115 0.965458 0.68789  0.0699738888889
 H1 0.37868 0.34769 0.75752  0.0699738888889
 H1 0.378682 0.84768 0.75752  0.0699738888889
 H1 0.87869 0.347691 0.75752  0.0699738888889
 H1 0.878692 0.847681 0.75752  0.0699738888889
 H1 0.034456 0.184615 0.68802  0.0699738888889
 H1 0.034459 0.684605 0.68802  0.0699738888889
 H1 0.534466 0.184615 0.68802  0.0699738888889
 H1 0.534469 0.684605 0.68802  0.0699738888889
 H1 0.12133 0.152289 0.25756  0.0699738888889
 H1 0.121332 0.652279 0.25756  0.0699738888889
 H1 0.621339 0.152289 0.25756  0.0699738888889
 H1 0.621342 0.652279 0.25756  0.0699738888889
 H1 0.465549 0.315355 0.18804  0.0699738888889
 H1 0.465552 0.815346 0.18804  0.0699738888889
 H1 0.965559 0.315356 0.18804  0.0699738888889
 H1 0.965561 0.815346 0.18804  0.0699738888889
 H1 0.288974 0.21143 0.48435  0.0699738888889
 H1 0.288976 0.71142 0.48435  0.0699738888889
 H1 0.788983 0.21143 0.48435  0.0699738888889
 H1 0.788986 0.71142 0.48435  0.0699738888889
 H1 0.448308 0.051327 0.55436  0.0699738888889
 H1 0.448311 0.551317 0.55436  0.0699738888889
 H1 0.948319 0.051328 0.55436  0.0699738888889
 H1 0.94832 0.551317 0.55436  0.0699738888889
 H1 0.21104 0.288537 0.98432  0.0699738888889
 H1 0.211042 0.788527 0.98432  0.0699738888889
 H1 0.71105 0.288537 0.98432  0.0699738888889
 H1 0.711052 0.788527 0.98432  0.0699738888889
 H1 0.0517 0.448644 0.05435  0.0699738888889
 H1 0.051702 0.948634 0.05435  0.0699738888889
 H1 0.551709 0.448644 0.05435  0.0699738888889
 H1 0.551711 0.948634 0.05435  0.0699738888889
 C1 0.319609 0.430929 0.24504  0.275503888889
 C1 0.319611 0.930919 0.24504  0.275503888889
 C1 0.819619 0.430929 0.24504  0.275503888889
 C1 0.819621 0.93092 0.24504  0.275503888889
 C1 0.23684 0.010247 0.21022  0.275503888889
 C1 0.236843 0.510238 0.21022  0.275503888889
 C1 0.73685 0.010247 0.21022  0.275503888889
 C1 0.736853 0.510238 0.21022  0.275503888889
 C1 0.180393 0.06904 0.74501  0.275503888889
 C1 0.180395 0.569031 0.74501  0.275503888889
 C1 0.680403 0.069041 0.74501  0.275503888889
 C1 0.680404 0.569031 0.74501  0.275503888889
 C1 0.263166 0.489725 0.71019  0.275503888889
 C1 0.263168 0.989716 0.71019  0.275503888889
 C1 0.763175 0.489726 0.71019  0.275503888889
 C1 0.763177 0.989716 0.71019  0.275503888889
 C1 0.431204 0.319639 0.7449  0.275503888889
 C1 0.431206 0.81963 0.7449  0.275503888889
 C1 0.931213 0.31964 0.7449  0.275503888889
 C1 0.931216 0.81963 0.74498  0.275503888889
 C1 0.01031 0.236646 0.7102  0.275503888889
 C1 0.010312 0.736636 0.7102  0.275503888889
 C1 0.510319 0.236646 0.71028  0.275503888889
 C1 0.510322 0.736636 0.7102  0.275503888889
 C1 0.068805 0.180336 0.24502  0.275503888889
 C1 0.068808 0.680326 0.24502  0.275503888889
 C1 0.568815 0.180336 0.24502  0.275503888889
 C1 0.568818 0.680326 0.24502  0.275503888889
 C1 0.489698 0.263325 0.21030  0.275503888889
 C1 0.4897 0.763316 0.21030  0.275503888889
 C1 0.989707 0.263326 0.21030  0.275503888889
 C1 0.98971 0.763316 0.21030  0.275503888889
 C1 0.331619 0.168601 0.48194  0.275503888889
 C1 0.331621 0.668591 0.48194  0.275503888889
 C1 0.831628 0.1686 0.48194  0.275503888889
 C1 0.83163 0.668591 0.48194  0.275503888889
 C1 0.412361 0.087467 0.51764  0.275503888889
 C1 0.412364 0.587458 0.51764  0.275503888889
 C1 0.912371 0.087468 0.51764  0.275503888889
 C1 0.912373 0.587457 0.51764  0.275503888889
 C1 0.168395 0.331366 0.98191  0.275503888889
 C1 0.168397 0.831356 0.98191  0.275503888889
 C1 0.668405 0.331367 0.98191  0.275503888889
 C1 0.668407 0.831356 0.98191  0.275503888889
 C1 0.087649 0.412502 0.0176  0.275503888889
 C1 0.087651 0.912492 0.0176  0.275503888889
 C1 0.587658 0.412502 0.0176  0.275503888889
 C1 0.587661 0.912492 0.0176  0.275503888889
 N1 0.350747 9.9e-05 0.26075  -0.276401111111
 N1 0.35075 0.500089 0.26075  -0.276401111111
 N1 0.850757 9.9e-05 0.26075  -0.276401111111
 N1 0.850759 0.500089 0.26075  -0.276401111111
 N1 0.297119 0.051673 0.2384  -0.276401111111
 N1 0.297122 0.551663 0.2384  -0.276401111111
 N1 0.797129 0.051673 0.2384  -0.276401111111
 N1 0.797132 0.551663 0.2384  -0.276401111111
 N2 0.248365 0.43439 0.21333  -0.453211111111
 N2 0.248367 0.93438 0.21333  -0.453211111111
 N2 0.748375 0.43439 0.21333  -0.453211111111
 N2 0.748377 0.934381 0.21333  -0.453211111111
 N1 0.149256 0.49987 0.76072  -0.276401111111
 N1 0.149258 0.99986 0.76072  -0.276401111111
 N1 0.649265 0.49987 0.76072  -0.276401111111
 N1 0.649268 0.99986 0.76072  -0.276401111111
 N1 0.202886 0.448297 0.73841  -0.276401111111
 N1 0.202888 0.948288 0.73841  -0.276401111111
 N1 0.702895 0.448298 0.73841  -0.276401111111
 N1 0.702898 0.948288 0.73841  -0.276401111111
 N2 0.251639 0.065582 0.71330  -0.453211111111
 N2 0.251641 0.565572 0.71330  -0.453211111111
 N2 0.751649 0.065582 0.71330  -0.453211111111
 N2 0.75165 0.565572 0.71330  -0.453211111111
 N1 0.000356 0.35068 0.76073  -0.276401111111
 N1 0.000359 0.85067 0.76073  -0.276401111111
 N1 0.500366 0.35068 0.76073  -0.276401111111
 N1 0.500368 0.85067 0.76073  -0.276401111111
 N1 0.051805 0.296912 0.73847  -0.276401111111
 N1 0.051807 0.796902 0.73847  -0.276401111111
 N1 0.551814 0.296912 0.73847  -0.276401111111
 N1 0.551817 0.796902 0.73847  -0.276401111111
 N2 0.434541 0.248309 0.71337  -0.453211111111
 N2 0.434543 0.748299 0.7133  -0.453211111111
 N2 0.934551 0.248309 0.71337  -0.453211111111
 N2 0.934553 0.748299 0.7133  -0.453211111111
 N1 0.499653 0.149294 0.26076  -0.276401111111
 N1 0.499656 0.649285 0.26076  -0.276401111111
 N1 0.999663 0.149295 0.26076  -0.276401111111
 N1 0.999665 0.649285 0.26076  -0.276401111111
 N1 0.448204 0.20306 0.2385  -0.276401111111
 N1 0.448206 0.70305 0.2385  -0.276401111111
 N1 0.948214 0.20306 0.23851  -0.276401111111
 N1 0.948216 0.70305 0.23851  -0.276401111111
 N2 0.065467 0.251666 0.21339  -0.453211111111
 N2 0.065469 0.751656 0.21339  -0.453211111111
 N2 0.565477 0.251665 0.21339  -0.453211111111
 N2 0.565479 0.751656 0.21339  -0.453211111111
 N1 0.35885 0.141256 0.41047  -0.276401111111
 N1 0.358852 0.641246 0.41047  -0.276401111111
 N1 0.858859 0.141256 0.41047  -0.276401111111
 N1 0.858862 0.641246 0.41047  -0.276401111111
 N1 0.411282 0.088572 0.43359  -0.276401111111
 N1 0.411285 0.588563 0.43359  -0.276401111111
 N1 0.911292 0.088573 0.43359  -0.276401111111
 N1 0.911294 0.588563 0.43359  -0.276401111111
 N2 0.363316 0.13674 0.55071  -0.453211111111
 N2 0.363319 0.63673 0.55071  -0.453211111111
 N2 0.863326 0.13674 0.55071  -0.453211111111
 N2 0.863328 0.63673 0.55071  -0.453211111111
 N1 0.141165 0.358709 0.91044  -0.276401111111
 N1 0.141167 0.858699 0.91044  -0.276401111111
 N1 0.641175 0.358709 0.91044  -0.276401111111
 N1 0.641177 0.858699 0.91044  -0.276401111111
 N1 0.088732 0.411392 0.93356  -0.276401111111
 N1 0.088734 0.911382 0.93356  -0.276401111111
 N1 0.588741 0.411392 0.93356  -0.276401111111
 N1 0.588744 0.911382 0.93356  -0.276401111111
 N2 0.136693 0.363231 0.05070  -0.453211111111
 N2 0.136695 0.86322 0.05070  -0.453211111111
 N2 0.636703 0.363231 0.05070  -0.453211111111
 N2 0.636705 0.863221 0.05070  -0.453211111111
 Cl1 0.058063 0.442516 0.28649  -0.534344444444
 Cl1 0.058064 0.942506 0.28649  -0.534344444444
 Cl1 0.558072 0.442515 0.28649  -0.534344444444
 Cl1 0.558074 0.942506 0.28649  -0.534344444444
 Cl2 0.229463 0.270207 0.33786  -0.563754444444
 Cl2 0.229465 0.770197 0.33786  -0.563754444444
 Cl2 0.729472 0.270207 0.33786  -0.563754444444
 Cl2 0.729475 0.770197 0.33786  -0.563754444444
 Cl2 0.269117 0.230756 0.12643  -0.563754444444
 Cl2 0.269119 0.730746 0.12643  -0.563754444444
 Cl2 0.769127 0.230756 0.12643  -0.563754444444
 Cl2 0.769129 0.730746 0.12643  -0.563754444444
 Cl1 0.441946 0.057449 0.78645  -0.534344444444
 Cl1 0.441947 0.55744 0.78645  -0.534344444444
 Cl1 0.941956 0.057449 0.78645  -0.534344444444
 Cl1 0.941957 0.557439 0.78645  -0.534344444444
 Cl2 0.27054 0.229761 0.83784  -0.563754444444
 Cl2 0.270543 0.729751 0.83784  -0.563754444444
 Cl2 0.77055 0.229762 0.83784  -0.563754444444
 Cl2 0.770552 0.729752 0.83784  -0.563754444444
 Cl2 0.2309 0.269221 0.62641  -0.563754444444
 Cl2 0.230902 0.769211 0.62641  -0.563754444444
 Cl2 0.730909 0.269221 0.62641  -0.563754444444
 Cl2 0.730912 0.769211 0.62641  -0.563754444444
