#======================================================================

# CRYSTAL DATA

#----------------------------------------------------------------------

data_VESTA_phase_1


_pd_phase_name                         MOF
_cell_length_a                         21.56200
_cell_length_b                         17.66600
_cell_length_c                         17.19600
_cell_angle_alpha                      89.98600
_cell_angle_beta                       89.95500
_cell_angle_gamma                      90.01100
_symmetry_space_group_name_H-M         "P 1"
_symmetry_Int_Tables_number            1

loop_
_symmetry_equiv_pos_as_xyz
   "x, y, z"

loop_
   _atom_site_label
   _atom_site_fract_x
   _atom_site_fract_y
   _atom_site_fract_z
 _atom_site_charge
 Zn1 0.080079 0.212511 0.48413  1.16924772727
 Zn1 0.58114 0.212601 0.48648  1.16924772727
 Zn2 0.287782 0.659819 0.91964  1.10959772727
 Zn2 0.788787 0.659904 0.91986  1.10959772727
 Zn2 0.336147 0.602755 0.10058  1.10959772727
 Zn2 0.836925 0.602789 0.10067  1.10959772727
 Zn2 0.16275 0.603609 0.01639  1.10959772727
 Zn2 0.66387 0.603744 0.01621  1.10959772727
 Zn1 0.170179 0.786954 0.98578  1.16924772727
 Zn1 0.669452 0.786646 0.98590  1.16924772727
 Zn2 0.461636 0.337555 0.41985  1.10959772727
 Zn2 0.961765 0.337662 0.41908  1.10959772727
 Zn2 0.413451 0.39658 0.60035  1.10959772727
 Zn2 0.914316 0.396853 0.60015  1.10959772727
 Zn2 0.085843 0.394177 0.5165  1.10959772727
 Zn2 0.586692 0.394162 0.5165  1.10959772727
 Zn1 0.418983 0.712771 0.01349  1.16924772727
 Zn1 0.919947 0.712801 0.01359  1.16924772727
 Zn2 0.21081 0.159599 0.57948  1.10959772727
 Zn2 0.712185 0.159815 0.58003  1.10959772727
 Zn2 0.163093 0.102644 0.39693  1.10959772727
 Zn2 0.664103 0.102668 0.39919  1.10959772727
 Zn2 0.336179 0.103383 0.48317  1.10959772727
 Zn2 0.837266 0.104004 0.48300  1.10959772727
 Zn1 0.330539 0.284862 0.51332  1.16924772727
 Zn1 0.82975 0.286873 0.5133  1.16924772727
 Zn2 0.039188 0.838225 0.08000  1.10959772727
 Zn2 0.538599 0.837622 0.07989  1.10959772727
 Zn2 0.085735 0.896714 0.89708  1.10959772727
 Zn2 0.586405 0.896456 0.89713  1.10959772727
 Zn2 0.413402 0.894034 0.98333  1.10959772727
 Zn2 0.91433 0.89443 0.98295  1.10959772727
 H1 0.005301 0.294862 0.54915  0.426877727273
 H1 0.505956 0.295132 0.54974  0.426877727273
 H1 0.114077 0.094261 0.54177  0.426877727273
 H1 0.614735 0.094421 0.54419  0.426877727273
 H2 0.122943 0.402111 0.13883  0.112281060606
 H2 0.623495 0.401425 0.13805  0.112281060606
 H2 0.105324 0.30027 0.23629  0.112281060606
 H2 0.605318 0.300316 0.23605  0.112281060606
 H2 0.288959 0.467861 0.26007  0.112281060606
 H2 0.789121 0.467542 0.25986  0.112281060606
 H2 0.096479 0.450453 0.83879  0.112281060606
 H2 0.596861 0.451333 0.83870  0.112281060606
 H2 0.084573 0.351549 0.73666  0.112281060606
 H2 0.585077 0.351976 0.73697  0.112281060606
 H2 0.281246 0.496584 0.7571  0.112281060606
 H2 0.781752 0.49713 0.7574  0.112281060606
 H1 0.243729 0.70236 0.04988  0.426877727273
 H1 0.744178 0.703008 0.04954  0.426877727273
 H1 0.135131 0.905105 0.04154  0.426877727273
 H1 0.634487 0.904403 0.04276  0.426877727273
 H2 0.1272 0.596868 0.63816  0.112281060606
 H2 0.626605 0.597284 0.6382  0.112281060606
 H2 0.145624 0.698179 0.73585  0.112281060606
 H2 0.644305 0.699077 0.73550  0.112281060606
 H2 0.461203 0.530874 0.76073  0.112281060606
 H2 0.961116 0.532187 0.7601  0.112281060606
 H2 0.153411 0.548135 0.33959  0.112281060606
 H2 0.652875 0.546885 0.33883  0.112281060606
 H2 0.16529 0.647291 0.23762  0.112281060606
 H2 0.664978 0.645753 0.23659  0.112281060606
 H2 0.468089 0.501083 0.25746  0.112281060606
 H2 0.968718 0.501894 0.25815  0.112281060606
 H1 0.494433 0.79562 0.9501  0.426877727273
 H1 0.995033 0.795487 0.95012  0.426877727273
 H1 0.385041 0.594948 0.9552  0.426877727273
 H1 0.886006 0.594798 0.9554  0.426877727273
 H2 0.376063 0.901318 0.36104  0.112281060606
 H2 0.87759 0.902102 0.35953  0.112281060606
 H2 0.394095 0.800064 0.26309  0.112281060606
 H2 0.895134 0.801035 0.26141  0.112281060606
 H2 0.210929 0.968269 0.23865  0.112281060606
 H2 0.710709 0.967394 0.23996  0.112281060606
 H2 0.403146 0.95038 0.65949  0.112281060606
 H2 0.903872 0.950724 0.66011  0.112281060606
 H2 0.415087 0.851336 0.76157  0.112281060606
 H2 0.915854 0.851642 0.76212  0.112281060606
 H2 0.218629 0.996904 0.74158  0.112281060606
 H2 0.71934 0.997045 0.74230  0.112281060606
 H1 0.255472 0.202236 0.44964  0.426877727273
 H1 0.755923 0.202339 0.44935  0.426877727273
 H1 0.364715 0.403279 0.45546  0.426877727273
 H1 0.865094 0.404312 0.45562  0.426877727273
 H2 0.372362 0.096189 0.86075  0.112281060606
 H2 0.873165 0.098194 0.86056  0.112281060606
 H2 0.354461 0.197832 0.76324  0.112281060606
 H2 0.855322 0.199463 0.76261  0.112281060606
 H2 0.037856 0.030518 0.73736  0.112281060606
 H2 0.538664 0.031368 0.73939  0.112281060606
 H2 0.347487 0.046998 0.16073  0.112281060606
 H2 0.846265 0.047477 0.15945  0.112281060606
 H2 0.335353 0.145741 0.26309  0.112281060606
 H2 0.834309 0.147101 0.26090  0.112281060606
 H2 0.030873 0.001654 0.24131  0.112281060606
 H2 0.532349 0.001423 0.24191  0.112281060606
 C1 0.208066 0.440219 0.19169  -0.126892272727
 C1 0.708505 0.439763 0.19108  -0.126892272727
 C2 0.155738 0.393424 0.18612  -0.0293156060606
 C2 0.656112 0.393034 0.185  -0.0293156060606
 C2 0.146027 0.336627 0.24085  -0.0293156060606
 C2 0.646064 0.336595 0.24070  -0.0293156060606
 C1 0.187635 0.326022 0.30266  -0.126892272727
 C1 0.687406 0.326151 0.30284  -0.126892272727
 C1 0.238904 0.375088 0.31019  -0.126892272727
 C1 0.738734 0.375189 0.31019  -0.126892272727
 C2 0.248878 0.430898 0.25395  -0.0293156060606
 C2 0.748996 0.430666 0.25369  -0.0293156060606
 C3 0.219615 0.501339 0.13351  0.717446060606
 C3 0.720607 0.500632 0.13269  0.717446060606
 C3 0.171218 0.263427 0.35881  0.717446060606
 C3 0.671089 0.263703 0.35941  0.717446060606
 C3 0.283244 0.370514 0.37714  0.717446060606
 C3 0.783141 0.370923 0.37704  0.717446060606
 C1 0.189472 0.480274 0.80440  -0.126892272727
 C1 0.689855 0.48108 0.80432  -0.126892272727
 C2 0.134242 0.43875 0.7984  -0.0293156060606
 C2 0.634651 0.439494 0.79845  -0.0293156060606
 C2 0.127749 0.383434 0.7411  -0.0293156060606
 C2 0.628224 0.383929 0.7413  -0.0293156060606
 C1 0.176508 0.367851 0.68974  -0.126892272727
 C1 0.677021 0.368298 0.69005  -0.126892272727
 C1 0.232419 0.409018 0.69589  -0.126892272727
 C1 0.732923 0.409452 0.69634  -0.126892272727
 C2 0.238019 0.465144 0.75268  -0.0293156060606
 C2 0.738522 0.465704 0.75291  -0.0293156060606
 C3 0.198485 0.539254 0.86601  0.717446060606
 C3 0.698837 0.54026 0.86566  0.717446060606
 C3 0.169317 0.30461 0.63167  0.717446060606
 C3 0.670153 0.304962 0.63201  0.717446060606
 C3 0.286196 0.391551 0.64386  0.717446060606
 C3 0.786567 0.391941 0.64430  0.717446060606
 C1 0.041923 0.559329 0.69133  -0.126892272727
 C1 0.541766 0.5587 0.69163  -0.126892272727
 C2 0.094568 0.605594 0.68569  -0.0293156060606
 C2 0.59397 0.605701 0.68579  -0.0293156060606
 C2 0.104756 0.662108 0.74063  -0.0293156060606
 C2 0.603766 0.66249 0.74054  -0.0293156060606
 C1 0.063383 0.672918 0.80275  -0.126892272727
 C1 0.562498 0.672863 0.80284  -0.126892272727
 C1 0.011907 0.624141 0.81036  -0.126892272727
 C1 0.511421 0.623469 0.81065  -0.126892272727
 C2 0.001419 0.568769 0.75392  -0.0293156060606
 C2 0.501241 0.567867 0.75429  -0.0293156060606
 C3 0.029282 0.498455 0.63328  0.717446060606
 C3 0.529863 0.497516 0.63355  0.717446060606
 C3 0.079747 0.735701 0.85877  0.717446060606
 C3 0.578725 0.735768 0.85887  0.717446060606
 C3 0.467394 0.627508 0.87801  0.717446060606
 C3 0.967631 0.62837 0.87741  0.717446060606
 C1 0.060561 0.518038 0.30508  -0.126892272727
 C1 0.559891 0.517208 0.30450  -0.126892272727
 C2 0.115685 0.559804 0.29925  -0.0293156060606
 C2 0.615162 0.558643 0.29851  -0.0293156060606
 C2 0.122174 0.615265 0.24206  -0.0293156060606
 C2 0.621762 0.613945 0.24119  -0.0293156060606
 C1 0.073487 0.630694 0.19058  -0.126892272727
 C1 0.573016 0.629695 0.18990  -0.126892272727
 C1 0.01753 0.589644 0.19697  -0.126892272727
 C1 0.51698 0.588722 0.19623  -0.126892272727
 C2 0.011942 0.533354 0.25361  -0.0293156060606
 C2 0.511349 0.532461 0.25289  -0.0293156060606
 C3 0.05171 0.4586 0.3663  0.717446060606
 C3 0.550844 0.458233 0.36612  0.717446060606
 C3 0.080493 0.693684 0.13217  0.717446060606
 C3 0.580433 0.692891 0.13179  0.717446060606
 C3 0.463065 0.6068 0.14476  0.717446060606
 C3 0.963748 0.607451 0.14524  0.717446060606
 C1 0.291323 0.93994 0.30762  -0.126892272727
 C1 0.79202 0.940053 0.30766  -0.126892272727
 C2 0.343574 0.893067 0.31334  -0.0293156060606
 C2 0.844539 0.893501 0.3125  -0.0293156060606
 C2 0.35353 0.836611 0.25831  -0.0293156060606
 C2 0.854207 0.837058 0.25735  -0.0293156060606
 C1 0.312289 0.826535 0.19604  -0.126892272727
 C1 0.81233 0.826302 0.19582  -0.126892272727
 C1 0.261193 0.875838 0.18835  -0.126892272727
 C1 0.760767 0.875073 0.18912  -0.126892272727
 C2 0.250941 0.931229 0.24486  -0.0293156060606
 C2 0.750949 0.93064 0.24567  -0.0293156060606
 C3 0.279206 0.000549 0.36612  0.717446060606
 C3 0.780474 0.001045 0.3661  0.717446060606
 C3 0.328684 0.764218 0.13953  0.717446060606
 C3 0.82878 0.7639 0.13926  0.717446060606
 C3 0.21694 0.871514 0.12135  0.717446060606
 C3 0.715863 0.870709 0.12271  0.717446060606
 C1 0.310278 0.980336 0.69416  -0.126892272727
 C1 0.811032 0.980721 0.69491  -0.126892272727
 C2 0.365467 0.938724 0.69997  -0.0293156060606
 C2 0.866192 0.939049 0.70058  -0.0293156060606
 C2 0.371981 0.883357 0.75721  -0.0293156060606
 C2 0.872728 0.883636 0.75780  -0.0293156060606
 C1 0.323281 0.867944 0.8087  -0.126892272727
 C1 0.824045 0.868126 0.8093  -0.126892272727
 C1 0.267494 0.909318 0.80276  -0.126892272727
 C1 0.76816 0.909304 0.80329  -0.126892272727
 C2 0.261805 0.965375 0.74597  -0.0293156060606
 C2 0.762525 0.96553 0.74665  -0.0293156060606
 C3 0.30125 0.03911 0.63247  0.717446060606
 C3 0.801924 0.039892 0.63355  0.717446060606
 C3 0.330322 0.804548 0.86670  0.717446060606
 C3 0.831061 0.80484 0.8674  0.717446060606
 C3 0.213943 0.89228 0.85512  0.717446060606
 C3 0.714466 0.891737 0.85533  0.717446060606
 C1 0.457687 0.058504 0.80792  -0.126892272727
 C1 0.957667 0.059058 0.8067  -0.126892272727
 C2 0.405163 0.104979 0.81341  -0.0293156060606
 C2 0.905629 0.106254 0.81272  -0.0293156060606
 C2 0.395284 0.16169 0.7585  -0.0293156060606
 C2 0.895787 0.162766 0.75765  -0.0293156060606
 C1 0.436856 0.17254 0.69668  -0.126892272727
 C1 0.93695 0.172755 0.69516  -0.126892272727
 C1 0.488278 0.123694 0.68923  -0.126892272727
 C1 0.987888 0.123185 0.68730  -0.126892272727
 C2 0.498428 0.068051 0.74556  -0.0293156060606
 C2 0.997978 0.067738 0.74381  -0.0293156060606
 C3 0.469843 0.997523 0.86612  0.717446060606
 C3 0.969925 0.998166 0.8650  0.717446060606
 C3 0.420414 0.234953 0.64021  0.717446060606
 C3 0.920628 0.235305 0.63880  0.717446060606
 C3 0.032052 0.12699 0.62001  0.717446060606
 C3 0.532884 0.128225 0.62251  0.717446060606
 C1 0.440465 0.017385 0.19509  -0.126892272727
 C1 0.939124 0.01766 0.19420  -0.126892272727
 C2 0.385181 0.058762 0.20108  -0.0293156060606
 C2 0.883968 0.059383 0.19974  -0.0293156060606
 C2 0.378559 0.113946 0.25846  -0.0293156060606
 C2 0.877451 0.115132 0.25660  -0.0293156060606
 C1 0.427281 0.12954 0.30982  -0.126892272727
 C1 0.926171 0.130944 0.30789  -0.126892272727
 C1 0.483373 0.088817 0.30339  -0.126892272727
 C1 0.982087 0.089779 0.3018  -0.126892272727
 C2 0.489065 0.032712 0.24659  -0.0293156060606
 C2 0.987677 0.033166 0.24562  -0.0293156060606
 C3 0.449369 0.958265 0.13362  0.717446060606
 C3 0.948217 0.958244 0.13315  0.717446060606
 C3 0.419957 0.192698 0.36784  0.717446060606
 C3 0.919179 0.194224 0.36594  0.717446060606
 C3 0.035901 0.107756 0.35329  0.717446060606
 C3 0.53717 0.106678 0.35516  0.717446060606
 O1 0.274414 0.527753 0.13001  -0.619944272727
 O1 0.775402 0.527209 0.13006  -0.619944272727
 O1 0.173319 0.522054 0.09249  -0.619944272727
 O1 0.674777 0.521027 0.09065  -0.619944272727
 O1 0.197035 0.198618 0.34987  -0.619944272727
 O1 0.69646 0.198755 0.35002  -0.619944272727
 O1 0.12846 0.278507 0.40699  -0.619944272727
 O1 0.629117 0.27901 0.40863  -0.619944272727
 O2 0.319842 0.424911 0.38991  -0.632532272727
 O2 0.819093 0.425783 0.39022  -0.632532272727
 O1 0.280371 0.309198 0.41717  -0.619944272727
 O1 0.781056 0.309177 0.41653  -0.619944272727
 O1 0.247859 0.578646 0.860  -0.619944272727
 O1 0.74874 0.578785 0.86046  -0.619944272727
 O1 0.157076 0.54463 0.91903  -0.619944272727
 O1 0.656908 0.546624 0.91786  -0.619944272727
 O1 0.189322 0.240141 0.65353  -0.619944272727
 O1 0.690692 0.240737 0.65376  -0.619944272727
 O1 0.141606 0.315332 0.56700  -0.619944272727
 O1 0.642303 0.315346 0.56736  -0.619944272727
 O1 0.337649 0.425319 0.65750  -0.619944272727
 O1 0.83868 0.423482 0.65932  -0.619944272727
 O1 0.276874 0.343591 0.59023  -0.619944272727
 O1 0.776197 0.346063 0.58903  -0.619944272727
 O3 0.024144 0.312025 0.5000  -0.997457272727
 O3 0.524651 0.312036 0.50047  -0.997457272727
 O3 0.144311 0.125946 0.50765  -0.997457272727
 O3 0.64518 0.125576 0.50969  -0.997457272727
 O1 0.474732 0.47205 0.62999  -0.619944272727
 O1 0.97372 0.474294 0.629  -0.619944272727
 O1 0.075132 0.475756 0.5926  -0.619944272727
 O1 0.576044 0.47582 0.59283  -0.619944272727
 O1 0.053319 0.800108 0.84984  -0.619944272727
 O1 0.552269 0.800239 0.85003  -0.619944272727
 O1 0.122611 0.721237 0.90692  -0.619944272727
 O1 0.621737 0.721417 0.90683  -0.619944272727
 O2 0.429752 0.573877 0.88961  -0.632532272727
 O2 0.930987 0.573938 0.88990  -0.632532272727
 O1 0.471608 0.687528 0.91981  -0.619944272727
 O1 0.970509 0.68938 0.91786  -0.619944272727
 O1 0.501633 0.41858 0.36014  -0.619944272727
 O1 0.0 0.418724 0.36006  -0.619944272727
 O1 0.092981 0.453276 0.41945  -0.619944272727
 O1 0.592093 0.45315 0.41928  -0.619944272727
 O1 0.061208 0.758401 0.15429  -0.619944272727
 O1 0.561275 0.757636 0.15389  -0.619944272727
 O1 0.107108 0.68261 0.0668  -0.619944272727
 O1 0.607517 0.681779 0.06672  -0.619944272727
 O1 0.411782 0.572166 0.15729  -0.619944272727
 O1 0.911912 0.574888 0.15983  -0.619944272727
 O1 0.472082 0.656426 0.09266  -0.619944272727
 O1 0.973439 0.65456 0.09087  -0.619944272727
 O3 0.224965 0.686098 0.00048  -0.997457272727
 O3 0.725503 0.686694 6e-0  -0.997457272727
 O3 0.104882 0.873368 0.00781  -0.997457272727
 O3 0.60478 0.872852 0.00807  -0.997457272727
 O1 0.224014 0.025724 0.36998  -0.619944272727
 O1 0.725579 0.027169 0.36990  -0.619944272727
 O1 0.325332 0.021953 0.40701  -0.619944272727
 O1 0.826768 0.021981 0.40703  -0.619944272727
 O1 0.304071 0.698903 0.14970  -0.619944272727
 O1 0.802879 0.699079 0.14768  -0.619944272727
 O1 0.370029 0.780076 0.08968  -0.619944272727
 O1 0.871573 0.779044 0.09110  -0.619944272727
 O2 0.181606 0.926688 0.10707  -0.632532272727
 O2 0.679839 0.925528 0.1097  -0.632532272727
 O1 0.218492 0.809049 0.08299  -0.619944272727
 O1 0.717708 0.808926 0.08330  -0.619944272727
 O1 0.251407 0.077744 0.63719  -0.619944272727
 O1 0.752579 0.079283 0.63969  -0.619944272727
 O1 0.343251 0.044956 0.58026  -0.619944272727
 O1 0.84321 0.045402 0.58043  -0.619944272727
 O1 0.309163 0.740484 0.84536  -0.619944272727
 O1 0.810525 0.740577 0.84587  -0.619944272727
 O1 0.359116 0.814697 0.93069  -0.619944272727
 O1 0.859055 0.815372 0.93194  -0.619944272727
 O1 0.162032 0.924364 0.84013  -0.619944272727
 O1 0.662468 0.923594 0.84000  -0.619944272727
 O1 0.224085 0.846381 0.91043  -0.619944272727
 O1 0.724459 0.845697 0.91052  -0.619944272727
 O3 0.475461 0.812014 0.99946  -0.997457272727
 O3 0.97623 0.81231 0.99935  -0.997457272727
 O3 0.35486 0.626255 0.99013  -0.997457272727
 O3 0.855795 0.625972 0.99032  -0.997457272727
 O1 0.024889 0.971993 0.8668  -0.619944272727
 O1 0.525111 0.972528 0.86982  -0.619944272727
 O1 0.423782 0.975576 0.90690  -0.619944272727
 O1 0.924533 0.977359 0.90756  -0.619944272727
 O1 0.44533 0.300129 0.64979  -0.619944272727
 O1 0.946898 0.299895 0.6472  -0.619944272727
 O1 0.378818 0.218994 0.59077  -0.619944272727
 O1 0.87775 0.220402 0.59077  -0.619944272727
 O2 0.068372 0.072353 0.60721  -0.632532272727
 O2 0.568901 0.07335 0.60943  -0.632532272727
 O1 0.029396 0.188157 0.57973  -0.619944272727
 O1 0.530996 0.189975 0.58304  -0.619944272727
 O1 0.997362 0.918509 0.13943  -0.619944272727
 O1 0.498461 0.91844 0.13975  -0.619944272727
 O1 0.408062 0.953192 0.08052  -0.619944272727
 O1 0.906953 0.952977 0.08003  -0.619944272727
 O1 0.440158 0.257056 0.34  -0.619944272727
 O1 0.938737 0.258837 0.34373  -0.619944272727
 O1 0.392021 0.182087 0.43242  -0.619944272727
 O1 0.892361 0.183307 0.43120  -0.619944272727
 O1 0.087533 0.074438 0.33948  -0.619944272727
 O1 0.589078 0.074498 0.34020  -0.619944272727
 O1 0.02643 0.155859 0.40673  -0.619944272727
 O1 0.527481 0.153371 0.40991  -0.619944272727
 O3 0.274181 0.185778 0.49903  -0.997457272727
 O3 0.774676 0.186001 0.4987  -0.997457272727
 O3 0.39472 0.371852 0.49029  -0.997457272727
 O3 0.895153 0.372762 0.49001  -0.997457272727
