#======================================================================

# CRYSTAL DATA

#----------------------------------------------------------------------

data_VESTA_phase_1


_pd_phase_name                         MOF
_cell_length_a                         21.83600
_cell_length_b                         13.24300
_cell_length_c                         13.24000
_cell_angle_alpha                      119.45400
_cell_angle_beta                       90.02400
_cell_angle_gamma                      90.09600
_symmetry_space_group_name_H-M         "P 1"
_symmetry_Int_Tables_number            1

loop_
_symmetry_equiv_pos_as_xyz
   "x, y, z"

loop_
   _atom_site_label
   _atom_site_fract_x
   _atom_site_fract_y
   _atom_site_fract_z
 _atom_site_charge
 Cd1 0.250036 0.668243 0.33257  1.09917290323
 Cd1 0.750039 0.667306 0.33244  1.09917290323
 Cd1 0.249986 0.332785 0.66759  1.09917290323
 Cd1 0.749991 0.331847 0.66745  1.09917290323
 H1 0.4449 0.574692 0.18744  0.105172903226
 H1 0.945027 0.573885 0.18748  0.105172903226
 H1 0.44538 0.615254 0.42617  0.105172903226
 H1 0.945303 0.615999 0.42713  0.105172903226
 H1 0.445041 0.812997 0.38459  0.105172903226
 H1 0.945375 0.812679 0.38430  0.105172903226
 H1 0.054738 0.615814 0.18726  0.105172903226
 H1 0.554723 0.616004 0.18724  0.105172903226
 H1 0.055103 0.812806 0.42610  0.105172903226
 H1 0.554753 0.812467 0.42630  0.105172903226
 H1 0.054971 0.574739 0.38572  0.105172903226
 H1 0.555021 0.573431 0.38463  0.105172903226
 H1 0.054995 0.426212 0.8125  0.105172903226
 H1 0.555124 0.425408 0.81258  0.105172903226
 H1 0.054722 0.384096 0.57289  0.105172903226
 H1 0.554642 0.384832 0.57386  0.105172903226
 H1 0.054648 0.187406 0.61571  0.105172903226
 H1 0.554984 0.1871 0.61544  0.105172903226
 H1 0.445301 0.384096 0.81278  0.105172903226
 H1 0.945284 0.384283 0.81277  0.105172903226
 H1 0.445271 0.18763 0.57372  0.105172903226
 H1 0.944921 0.18728 0.57392  0.105172903226
 H1 0.445001 0.426657 0.61540  0.105172903226
 H1 0.945054 0.425355 0.61430  0.105172903226
 C1 0.469072 0.542043 0.10523  -0.130487096774
 C1 0.969146 0.541615 0.10527  -0.130487096774
 C2 0.33886 0.491929 0.10320  0.444952903226
 C2 0.839014 0.491014 0.10322  0.444952903226
 C1 0.469332 0.564635 0.45846  -0.130487096774
 C1 0.969287 0.565022 0.45898  -0.130487096774
 C2 0.339294 0.613046 0.50890  0.444952903226
 C2 0.839146 0.612476 0.50900  0.444952903226
 C1 0.469148 0.895041 0.43527  -0.130487096774
 C1 0.969335 0.894867 0.43512  -0.130487096774
 C2 0.339183 0.897862 0.38641  0.444952903226
 C2 0.839272 0.896947 0.38638  0.444952903226
 C1 0.030739 0.564967 0.10513  -0.130487096774
 C1 0.530742 0.565055 0.10511  -0.130487096774
 C2 0.160787 0.613816 0.1026  0.444952903226
 C2 0.660948 0.613078 0.10257  0.444952903226
 C1 0.030943 0.894929 0.45840  -0.130487096774
 C1 0.530754 0.894733 0.45851  -0.130487096774
 C2 0.161126 0.897424 0.50884  0.444952903226
 C2 0.660969 0.896518 0.50856  0.444952903226
 C1 0.030864 0.542045 0.43591  -0.130487096774
 C1 0.530901 0.541349 0.43534  -0.130487096774
 C2 0.160852 0.491684 0.38759  0.444952903226
 C2 0.660864 0.490627 0.38720  0.444952903226
 C1 0.030877 0.458482 0.89476  -0.130487096774
 C1 0.530952 0.458057 0.89479  -0.130487096774
 C2 0.161009 0.509078 0.89681  0.444952903226
 C2 0.661165 0.508163 0.8968  0.444952903226
 C1 0.030738 0.435072 0.54105  -0.130487096774
 C1 0.53069 0.435451 0.5415  -0.130487096774
 C2 0.16088 0.387624 0.49103  0.444952903226
 C2 0.660729 0.387042 0.49113  0.444952903226
 C1 0.030688 0.105218 0.56489  -0.130487096774
 C1 0.530877 0.105056 0.56476  -0.130487096774
 C2 0.160752 0.103139 0.6136  0.444952903226
 C2 0.660843 0.102232 0.6136  0.444952903226
 C1 0.469282 0.435045 0.89491  -0.130487096774
 C1 0.969284 0.43513 0.89489  -0.130487096774
 C2 0.339078 0.387007 0.89745  0.444952903226
 C2 0.839236 0.386277 0.89741  0.444952903226
 C1 0.469271 0.105363 0.54152  -0.130487096774
 C1 0.96908 0.105158 0.54161  -0.130487096774
 C2 0.339055 0.103577 0.49147  0.444952903226
 C2 0.838898 0.10266 0.49118  0.444952903226
 C1 0.469121 0.458738 0.56469  -0.130487096774
 C1 0.969161 0.458049 0.56411  -0.130487096774
 C2 0.339158 0.509468 0.61284  0.444952903226
 C2 0.839173 0.508409 0.61243  0.444952903226
 C3 0.371765 0.45208 0.00021  -0.106450430108
 C3 0.871898 0.451384 0.00022  -0.106450430108
 C3 0.43646 0.476402 0.  -0.106450430108
 C3 0.936532 0.476044 0.0001  -0.106450430108
 C3 0.371975 0.54855 0.54821  -0.106450430108
 C3 0.871925 0.547891 0.54807  -0.106450430108
 C3 0.436569 0.523991 0.52380  -0.106450430108
 C3 0.936551 0.523671 0.52373  -0.106450430108
 C3 0.371891 0.000578 0.45162  -0.106450430108
 C3 0.871854 0.999831 0.45152  -0.106450430108
 C3 0.436531 0.000342 0.47614  -0.106450430108
 C3 0.936516 0.999958 0.47609  -0.106450430108
 C3 0.128125 0.548711 0.99980  -0.106450430108
 C3 0.628264 0.548003 0.99978  -0.106450430108
 C3 0.063496 0.524043 0.9998  -0.106450430108
 C3 0.563563 0.523695 0.99987  -0.106450430108
 C3 0.128165 0.000226 0.54850  -0.106450430108
 C3 0.628128 0.999489 0.5484  -0.106450430108
 C3 0.063504 9.9e-05 0.52393  -0.106450430108
 C3 0.563489 0.999727 0.52389  -0.106450430108
 C3 0.128101 0.452205 0.45196  -0.106450430108
 C3 0.628046 0.45154 0.45182  -0.106450430108
 C3 0.063475 0.476423 0.47629  -0.106450430108
 C3 0.563453 0.476096 0.47623  -0.106450430108
 N1 0.312221 0.523811 0.19084  -0.496383763441
 N1 0.812392 0.522802 0.19085  -0.496383763441
 N1 0.312809 0.669874 0.47748  -0.496383763441
 N1 0.812557 0.669404 0.47782  -0.496383763441
 N1 0.312699 0.810521 0.3289  -0.496383763441
 N1 0.81288 0.809464 0.3290  -0.496383763441
 N1 0.187234 0.671166 0.19001  -0.496383763441
 N1 0.687433 0.670445 0.18993  -0.496383763441
 N1 0.18782 0.809917 0.4770  -0.496383763441
 N1 0.687589 0.80892 0.47662  -0.496383763441
 N1 0.187377 0.523223 0.33083  -0.496383763441
 N1 0.687433 0.521925 0.33028  -0.496383763441
 N1 0.187633 0.47729 0.80917  -0.496383763441
 N1 0.687805 0.476278 0.80918  -0.496383763441
 N1 0.187469 0.330701 0.52221  -0.496383763441
 N1 0.687215 0.330212 0.52254  -0.496383763441
 N1 0.187143 0.190622 0.6710  -0.496383763441
 N1 0.687326 0.189573 0.67109  -0.496383763441
 N1 0.312592 0.329634 0.81009  -0.496383763441
 N1 0.812793 0.328924 0.81001  -0.496383763441
 N1 0.312433 0.191174 0.52341  -0.496383763441
 N1 0.812204 0.190168 0.52294  -0.496383763441
 N1 0.31259 0.478175 0.66976  -0.496383763441
 N1 0.812649 0.476866 0.66919  -0.496383763441
