#======================================================================

# CRYSTAL DATA

#----------------------------------------------------------------------

data_VESTA_phase_1


_pd_phase_name                         MOF
_cell_length_a                         23.67900
_cell_length_b                         14.30400
_cell_length_c                         17.53200
_cell_angle_alpha                      89.97200
_cell_angle_beta                       90.00400
_cell_angle_gamma                      90.00600
_symmetry_space_group_name_H-M         "P 1"
_symmetry_Int_Tables_number            1

loop_
_symmetry_equiv_pos_as_xyz
   "x, y, z"

loop_
   _atom_site_label
   _atom_site_fract_x
   _atom_site_fract_y
   _atom_site_fract_z
 _atom_site_charge
 Cd1 0.008539 0.63826 0.01526  0.975501025641
 Cd1 0.508578 0.638215 0.01531  0.975501025641
 Cd1 0.008541 0.361749 0.98471  0.975501025641
 Cd1 0.50859 0.361761 0.98468  0.975501025641
 Cd1 0.491016 0.862189 0.51571  0.975501025641
 Cd1 0.991077 0.862276 0.51561  0.975501025641
 Cd1 0.490958 0.137872 0.48434  0.975501025641
 Cd1 0.991026 0.137757 0.48437  0.975501025641
 H1 0.11042 0.634998 0.13395  0.10971011655
 H1 0.610435 0.635603 0.13346  0.10971011655
 H1 0.114699 0.626023 0.89823  0.10971011655
 H1 0.614752 0.625839 0.89776  0.10971011655
 H1 0.220115 0.625183 0.89629  0.10971011655
 H1 0.720159 0.625008 0.89584  0.10971011655
 H1 0.215957 0.635522 0.14274  0.10971011655
 H1 0.715984 0.635917 0.14228  0.10971011655
 H1 0.495526 0.302958 0.24951  0.10971011655
 H1 0.996051 0.302713 0.24947  0.10971011655
 H1 0.403961 0.715863 0.92390  0.10971011655
 H1 0.903915 0.716184 0.92336  0.10971011655
 H1 0.298677 0.721096 0.9214  0.10971011655
 H1 0.798615 0.721199 0.92087  0.10971011655
 H1 0.29929 0.543446 0.12115  0.10971011655
 H1 0.799345 0.543833 0.12077  0.10971011655
 H1 0.404817 0.546572 0.11554  0.10971011655
 H1 0.904906 0.547113 0.11512  0.10971011655
 H1 0.014263 0.485129 0.4415  0.10971011655
 H1 0.514527 0.485276 0.44151  0.10971011655
 H1 0.017779 0.598956 0.2130  0.10971011655
 H1 0.517955 0.599037 0.21297  0.10971011655
 H2 0.014088 0.698186 0.3325  0.336941025641
 H2 0.513892 0.698265 0.33259  0.336941025641
 H2 0.017995 0.648311 0.41947  0.336941025641
 H2 0.51781 0.648399 0.41940  0.336941025641
 H1 0.110415 0.365054 0.8660  0.10971011655
 H1 0.61044 0.36439 0.86653  0.10971011655
 H1 0.114727 0.373979 0.10174  0.10971011655
 H1 0.614767 0.374189 0.10223  0.10971011655
 H1 0.220143 0.374814 0.10368  0.10971011655
 H1 0.720177 0.375003 0.10417  0.10971011655
 H1 0.21595 0.364527 0.85723  0.10971011655
 H1 0.715989 0.364072 0.85773  0.10971011655
 H1 0.496031 0.697161 0.75061  0.10971011655
 H1 0.996024 0.697291 0.75050  0.10971011655
 H1 0.403976 0.284133 0.07607  0.10971011655
 H1 0.903938 0.283787 0.07662  0.10971011655
 H1 0.298693 0.278902 0.07857  0.10971011655
 H1 0.798638 0.27878 0.07914  0.10971011655
 H1 0.299299 0.456543 0.87882  0.10971011655
 H1 0.799341 0.456153 0.87924  0.10971011655
 H1 0.404826 0.453405 0.88442  0.10971011655
 H1 0.904902 0.452869 0.88487  0.10971011655
 H1 0.014262 0.51489 0.55843  0.10971011655
 H1 0.514093 0.514862 0.55845  0.10971011655
 H1 0.017777 0.40106 0.7869  0.10971011655
 H1 0.517921 0.400944 0.78694  0.10971011655
 H2 0.01408 0.301831 0.66739  0.336941025641
 H2 0.513975 0.301802 0.66730  0.336941025641
 H2 0.017992 0.351707 0.58050  0.336941025641
 H2 0.518189 0.351718 0.58047  0.336941025641
 H1 0.389109 0.865048 0.63409  0.10971011655
 H1 0.889094 0.864721 0.63387  0.10971011655
 H1 0.384855 0.874021 0.39837  0.10971011655
 H1 0.884803 0.874692 0.39818  0.10971011655
 H1 0.279423 0.874857 0.39639  0.10971011655
 H1 0.779395 0.875184 0.39621  0.10971011655
 H1 0.28357 0.864465 0.6428  0.10971011655
 H1 0.783555 0.864232 0.64263  0.10971011655
 H1 0.003184 0.197995 0.75003  0.10971011655
 H1 0.502929 0.197987 0.74995  0.10971011655
 H1 0.09549 0.78381 0.42455  0.10971011655
 H1 0.595494 0.783685 0.42430  0.10971011655
 H1 0.200773 0.778591 0.42186  0.10971011655
 H1 0.700767 0.778626 0.42163  0.10971011655
 H1 0.200389 0.957052 0.62096  0.10971011655
 H1 0.700292 0.956928 0.62082  0.10971011655
 H1 0.094825 0.954214 0.61536  0.10971011655
 H1 0.59474 0.953928 0.61525  0.10971011655
 H1 0.486312 0.013724 0.94131  0.10971011655
 H1 0.986494 0.013692 0.94133  0.10971011655
 H1 0.481595 0.901876 0.71233  0.10971011655
 H1 0.982267 0.901808 0.71233  0.10971011655
 H2 0.485586 0.801703 0.83123  0.336941025641
 H2 0.986202 0.801702 0.8313  0.336941025641
 H2 0.482394 0.85089 0.91847  0.336941025641
 H2 0.982838 0.850931 0.91849  0.336941025641
 H1 0.388961 0.135387 0.36586  0.10971011655
 H1 0.889054 0.135304 0.3661  0.10971011655
 H1 0.384749 0.125113 0.60154  0.10971011655
 H1 0.884814 0.125363 0.60182  0.10971011655
 H1 0.279331 0.124717 0.60356  0.10971011655
 H1 0.779403 0.124905 0.60381  0.10971011655
 H1 0.283415 0.135801 0.3571  0.10971011655
 H1 0.783513 0.135814 0.35739  0.10971011655
 H1 0.003177 0.802008 0.24996  0.10971011655
 H1 0.503339 0.802047 0.25001  0.10971011655
 H1 0.095429 0.216213 0.57546  0.10971011655
 H1 0.595456 0.216344 0.57564  0.10971011655
 H1 0.200723 0.221372 0.5781  0.10971011655
 H1 0.700728 0.221476 0.57837  0.10971011655
 H1 0.200254 0.042981 0.37900  0.10971011655
 H1 0.700298 0.043039 0.37926  0.10971011655
 H1 0.094683 0.04585 0.38462  0.10971011655
 H1 0.594715 0.045707 0.3849  0.10971011655
 H1 0.486151 0.986244 0.05872  0.10971011655
 H1 0.986504 0.986305 0.05866  0.10971011655
 H1 0.482168 0.09818 0.28771  0.10971011655
 H1 0.982264 0.09819 0.28765  0.10971011655
 H2 0.48569 0.198326 0.16871  0.336941025641
 H2 0.986212 0.198294 0.16867  0.336941025641
 H2 0.482328 0.149046 0.08152  0.336941025641
 H2 0.982853 0.149068 0.08149  0.336941025641
 C1 0.136729 0.632004 0.08295  0.183228525641
 C1 0.636759 0.632418 0.08248  0.183228525641
 C1 0.139004 0.627577 0.95105  0.183228525641
 C1 0.63904 0.627622 0.95058  0.183228525641
 C2 0.197674 0.627997 0.95049  -0.176743260073
 C2 0.697709 0.627994 0.95003  -0.176743260073
 C2 0.195387 0.632025 0.08721  -0.176743260073
 C2 0.695415 0.632346 0.08675  -0.176743260073
 C3 0.227313 0.630397 0.01979  -0.020821474359
 C3 0.727337 0.630564 0.01933  -0.020821474359
 C4 0.007065 0.430891 0.13847  0.656746025641
 C4 0.506957 0.430975 0.13846  0.656746025641
 C3 0.289705 0.631366 0.0207  -0.020821474359
 C3 0.789721 0.631591 0.02032  -0.020821474359
 C2 0.50148 0.372903 0.27183  -0.176743260073
 C2 0.0 0.372697 0.27181  -0.176743260073
 C1 0.378967 0.677998 0.96610  0.183228525641
 C1 0.878945 0.678291 0.96558  0.183228525641
 C2 0.320287 0.680043 0.96487  -0.176743260073
 C2 0.820264 0.68024 0.96436  -0.176743260073
 C4 0.497725 0.303789 0.40271  0.656746025641
 C4 0.997682 0.303546 0.40263  0.656746025641
 C2 0.320626 0.583267 0.07668  -0.176743260073
 C2 0.820662 0.583623 0.07627  -0.176743260073
 C1 0.379315 0.58405 0.07373  0.183228525641
 C1 0.879347 0.584492 0.07331  0.183228525641
 C3 0.503855 0.386347 0.35065  -0.020821474359
 C3 0.0 0.386143 0.3506  -0.020821474359
 C2 0.01227 0.475774 0.37999  -0.176743260073
 C2 0.51236 0.475944 0.37996  -0.176743260073
 C2 0.014568 0.539619 0.25193  -0.176743260073
 C2 0.514596 0.539744 0.25190  -0.176743260073
 C5 0.017495 0.554001 0.33153  0.273991025641
 C5 0.517524 0.554156 0.33149  0.273991025641
 C3 0.007436 0.449148 0.22251  -0.020821474359
 C3 0.507271 0.449293 0.22250  -0.020821474359
 C1 0.136727 0.368036 0.91702  0.183228525641
 C1 0.636763 0.36758 0.91751  0.183228525641
 C1 0.139027 0.372435 0.04892  0.183228525641
 C1 0.639058 0.372393 0.04941  0.183228525641
 C2 0.197698 0.37201 0.04948  -0.176743260073
 C2 0.697727 0.372014 0.0499  -0.176743260073
 C2 0.195385 0.368012 0.91276  -0.176743260073
 C2 0.695419 0.36765 0.91325  -0.176743260073
 C3 0.227318 0.369619 0.98018  -0.020821474359
 C3 0.727341 0.369431 0.98068  -0.020821474359
 C4 0.007054 0.569115 0.86150  0.656746025641
 C4 0.50701 0.56901 0.86156  0.656746025641
 C3 0.28971 0.368633 0.97919  -0.020821474359
 C3 0.789725 0.368394 0.97969  -0.020821474359
 C2 0.501747 0.627187 0.72825  -0.176743260073
 C2 0.0 0.627312 0.72816  -0.176743260073
 C1 0.378983 0.321991 0.03387  0.183228525641
 C1 0.878964 0.321686 0.03441  0.183228525641
 C2 0.320303 0.319953 0.03510  -0.176743260073
 C2 0.820283 0.319742 0.03565  -0.176743260073
 C4 0.497648 0.696592 0.59760  0.656746025641
 C4 0.997683 0.696465 0.59733  0.656746025641
 C2 0.320634 0.416723 0.92329  -0.176743260073
 C2 0.820662 0.416364 0.92374  -0.176743260073
 C1 0.379323 0.415933 0.92624  0.183228525641
 C1 0.879347 0.415491 0.92668  0.183228525641
 C3 0.503894 0.613824 0.64943  -0.020821474359
 C3 0.0 0.613868 0.6493  -0.020821474359
 C2 0.012262 0.524242 0.61998  -0.176743260073
 C2 0.512174 0.524205 0.6200  -0.176743260073
 C2 0.014559 0.460396 0.74804  -0.176743260073
 C2 0.514594 0.460294 0.74807  -0.176743260073
 C5 0.017487 0.446016 0.66844  0.273991025641
 C5 0.517482 0.445963 0.66845  0.273991025641
 C3 0.007422 0.550863 0.77746  -0.020821474359
 C3 0.507386 0.550726 0.77753  -0.020821474359
 C1 0.362807 0.86807 0.58308  0.183228525641
 C1 0.862788 0.867993 0.58288  0.183228525641
 C1 0.360539 0.872506 0.45117  0.183228525641
 C1 0.860512 0.872875 0.45099  0.183228525641
 C2 0.301866 0.872053 0.45060  -0.176743260073
 C2 0.801837 0.872298 0.4504  -0.176743260073
 C2 0.304152 0.868001 0.58731  -0.176743260073
 C2 0.80413 0.867912 0.58711  -0.176743260073
 C3 0.272234 0.869632 0.5198  -0.020821474359
 C3 0.772203 0.869673 0.51969  -0.020821474359
 C4 0.491902 0.070596 0.63841  0.656746025641
 C4 0.992771 0.070572 0.6384  0.656746025641
 C3 0.209848 0.86871 0.52090  -0.020821474359
 C3 0.709807 0.868677 0.52072  -0.020821474359
 C2 0.997812 0.127749 0.77205  -0.176743260073
 C2 0.497499 0.127763 0.77200  -0.176743260073
 C1 0.120531 0.821936 0.46652  0.183228525641
 C1 0.6205 0.821849 0.46630  0.183228525641
 C2 0.179208 0.819841 0.46521  -0.176743260073
 C2 0.679183 0.819822 0.46499  -0.176743260073
 C4 0.002271 0.195741 0.90326  0.656746025641
 C4 0.502238 0.19571 0.90321  0.656746025641
 C2 0.178995 0.917091 0.57665  -0.176743260073
 C2 0.678921 0.916974 0.57649  -0.176743260073
 C1 0.120307 0.916435 0.57374  0.183228525641
 C1 0.62023 0.916239 0.57358  0.183228525641
 C3 0.996017 0.113589 0.85084  -0.020821474359
 C3 0.495857 0.113591 0.85079  -0.020821474359
 C2 0.487868 0.023674 0.87978  -0.176743260073
 C2 0.988108 0.023648 0.87981  -0.176743260073
 C2 0.484906 0.960947 0.75143  -0.176743260073
 C2 0.985483 0.960889 0.75144  -0.176743260073
 C5 0.482379 0.945889 0.83098  0.273991025641
 C5 0.982781 0.945849 0.83098  0.273991025641
 C3 0.491779 0.051696 0.72237  -0.020821474359
 C3 0.992366 0.051653 0.72240  -0.020821474359
 C1 0.362672 0.131983 0.41686  0.183228525641
 C1 0.862758 0.132051 0.41712  0.183228525641
 C1 0.360433 0.126968 0.54875  0.183228525641
 C1 0.86051 0.127186 0.54901  0.183228525641
 C2 0.301762 0.127609 0.54935  -0.176743260073
 C2 0.801836 0.127786 0.54960  -0.176743260073
 C2 0.304016 0.132074 0.41265  -0.176743260073
 C2 0.8041 0.132151 0.41290  -0.176743260073
 C3 0.272121 0.130285 0.4800  -0.020821474359
 C3 0.772187 0.130408 0.48033  -0.020821474359
 C4 0.492776 0.929425 0.36158  0.656746025641
 C4 0.992766 0.929431 0.36154  0.656746025641
 C3 0.209741 0.131287 0.47907  -0.020821474359
 C3 0.709791 0.131366 0.47932  -0.020821474359
 C2 0.997806 0.872251 0.22793  -0.176743260073
 C2 0.497865 0.872269 0.22798  -0.176743260073
 C1 0.120457 0.17809 0.53348  0.183228525641
 C1 0.620474 0.178129 0.53371  0.183228525641
 C2 0.179133 0.180155 0.53479  -0.176743260073
 C2 0.679156 0.18022 0.53502  -0.176743260073
 C4 0.002271 0.804262 0.09673  0.656746025641
 C4 0.502275 0.804285 0.09677  0.656746025641
 C2 0.178871 0.082937 0.4233  -0.176743260073
 C2 0.678917 0.082981 0.42358  -0.176743260073
 C1 0.120187 0.08361 0.4262  0.183228525641
 C1 0.620227 0.083565 0.42653  0.183228525641
 C3 0.996014 0.88641 0.14915  -0.020821474359
 C3 0.496 0.886415 0.14920  -0.020821474359
 C2 0.487921 0.976317 0.12024  -0.176743260073
 C2 0.988114 0.97635 0.12018  -0.176743260073
 C2 0.485407 0.039105 0.24860  -0.176743260073
 C2 0.98548 0.039109 0.24854  -0.176743260073
 C5 0.48258 0.054121 0.1690  0.273991025641
 C5 0.982786 0.054149 0.16900  0.273991025641
 C3 0.492353 0.948353 0.27763  -0.020821474359
 C3 0.992358 0.948346 0.27758  -0.020821474359
 N1 0.108832 0.629647 0.01604  -0.324448974359
 N1 0.608871 0.629958 0.01556  -0.324448974359
 N1 0.408151 0.629886 0.01914  -0.324448974359
 N1 0.908148 0.630301 0.01867  -0.324448974359
 N2 0.027727 0.64153 0.36272  -0.730738974359
 N2 0.527746 0.641721 0.3627  -0.730738974359
 N1 0.108836 0.37038 0.98393  -0.324448974359
 N1 0.608876 0.370045 0.98443  -0.324448974359
 N1 0.408158 0.370096 0.98082  -0.324448974359
 N1 0.908151 0.369675 0.98132  -0.324448974359
 N2 0.027722 0.358491 0.63725  -0.730738974359
 N2 0.527776 0.358442 0.63726  -0.730738974359
 N1 0.390713 0.870462 0.51617  -0.324448974359
 N1 0.890697 0.870641 0.51597  -0.324448974359
 N1 0.09142 0.870362 0.51937  -0.324448974359
 N1 0.591361 0.870179 0.51918  -0.324448974359
 N2 0.4723 0.858114 0.86188  -0.730738974359
 N2 0.972719 0.858056 0.8618  -0.730738974359
 N1 0.390592 0.129233 0.48375  -0.324448974359
 N1 0.890679 0.129397 0.4840  -0.324448974359
 N1 0.091328 0.129685 0.48062  -0.324448974359
 N1 0.591344 0.129646 0.48090  -0.324448974359
 N2 0.472362 0.141851 0.13816  -0.730738974359
 N2 0.972729 0.141939 0.13809  -0.730738974359
 O1 0.009776 0.497723 0.09036  -0.614455641026
 O1 0.510892 0.497675 0.09037  -0.614455641026
 O1 0.005045 0.345434 0.11649  -0.614455641026
 O1 0.503873 0.345601 0.1164  -0.614455641026
 O2 0.506074 0.312852 0.47392  -0.633098974359
 O2 0.0 0.312871 0.47404  -0.633098974359
 O1 0.484518 0.224857 0.37249  -0.614455641026
 O1 0.985435 0.224308 0.37220  -0.614455641026
 O1 0.009767 0.502282 0.90961  -0.614455641026
 O1 0.510896 0.5023 0.90965  -0.614455641026
 O1 0.005032 0.654571 0.88349  -0.614455641026
 O1 0.503887 0.654379 0.88354  -0.614455641026
 O2 0.503841 0.687149 0.52600  -0.633098974359
 O2 0.0 0.687139 0.5259  -0.633098974359
 O1 0.486479 0.776068 0.62837  -0.614455641026
 O1 0.985444 0.775707 0.62776  -0.614455641026
 O1 0.489091 0.004003 0.59004  -0.614455641026
 O1 0.990125 0.003981 0.59004  -0.614455641026
 O1 0.493839 0.156104 0.6165  -0.614455641026
 O1 0.99481 0.156063 0.61658  -0.614455641026
 O2 0.997119 0.185264 0.97489  -0.633098974359
 O2 0.496085 0.185439 0.97472  -0.633098974359
 O1 0.012422 0.275829 0.87281  -0.614455641026
 O1 0.513439 0.275523 0.87292  -0.614455641026
 O1 0.491328 0.996091 0.40999  -0.614455641026
 O1 0.990127 0.996023 0.40994  -0.614455641026
 O1 0.493737 0.843874 0.38342  -0.614455641026
 O1 0.994823 0.843943 0.38341  -0.614455641026
 O2 0.997121 0.814741 0.025  -0.633098974359
 O2 0.496094 0.81457 0.02527  -0.633098974359
 O1 0.012429 0.724177 0.12718  -0.614455641026
 O1 0.51346 0.724463 0.12705  -0.614455641026
