#======================================================================

# CRYSTAL DATA

#----------------------------------------------------------------------

data_VESTA_phase_1


_pd_phase_name                         MOF
_cell_length_a                         13.92800
_cell_length_b                         19.23300
_cell_length_c                         17.93400
_cell_angle_alpha                      102.20000
_cell_angle_beta                       96.87500
_cell_angle_gamma                      105.92900
_symmetry_space_group_name_H-M         "P 1"
_symmetry_Int_Tables_number            1

loop_
_symmetry_equiv_pos_as_xyz
   "x, y, z"

loop_
   _atom_site_label
   _atom_site_fract_x
   _atom_site_fract_y
   _atom_site_fract_z
 _atom_site_charge
 Zn1 0.036934 0.271539 0.24991  0.908948289474
 Zn1 0.036934 0.77154 0.24991  0.908948289474
 Zn1 0.536921 0.27154 0.24991  0.908948289474
 Zn1 0.536921 0.771541 0.24991  0.908948289474
 Zn1 0.088732 0.101402 0.25017  0.908948289474
 Zn1 0.088732 0.601404 0.25017  0.908948289474
 Zn1 0.588711 0.101402 0.25017  0.908948289474
 Zn1 0.58871 0.601404 0.25017  0.908948289474
 Zn1 0.463043 0.22846 0.7500  0.908948289474
 Zn1 0.463046 0.728463 0.7500  0.908948289474
 Zn1 0.963029 0.228463 0.7500  0.908948289474
 Zn1 0.963033 0.728466 0.7500  0.908948289474
 Zn1 0.41125 0.398598 0.749  0.908948289474
 Zn1 0.411258 0.898601 0.74980  0.908948289474
 Zn1 0.911229 0.398599 0.749  0.908948289474
 Zn1 0.911236 0.898601 0.749  0.908948289474
 H1 0.400202 0.025448 0.02344  0.102732664474
 H1 0.4002 0.525449 0.02344  0.102732664474
 H1 0.900184 0.025451 0.02344  0.102732664474
 H1 0.900182 0.525453 0.02344  0.102732664474
 H1 0.111829 0.235639 0.02320  0.102732664474
 H1 0.111833 0.735641 0.02320  0.102732664474
 H1 0.611807 0.235642 0.02320  0.102732664474
 H1 0.611808 0.735643 0.02320  0.102732664474
 H1 0.079181 0.200238 0.87989  0.102732664474
 H1 0.079186 0.700239 0.87989  0.102732664474
 H1 0.579165 0.20024 0.87989  0.102732664474
 H1 0.579167 0.700241 0.87989  0.102732664474
 H1 0.360104 0.990751 0.88017  0.102732664474
 H1 0.360104 0.490753 0.88017  0.102732664474
 H1 0.86008 0.990755 0.88017  0.102732664474
 H1 0.86008 0.490758 0.88017  0.102732664474
 H1 0.186973 0.357789 0.47613  0.102732664474
 H1 0.186976 0.857791 0.47613  0.102732664474
 H1 0.686951 0.357788 0.47613  0.102732664474
 H1 0.686951 0.857791 0.47613  0.102732664474
 H1 0.051192 0.129153 0.47894  0.102732664474
 H1 0.051197 0.629155 0.47894  0.102732664474
 H1 0.551168 0.129153 0.47894  0.102732664474
 H1 0.551174 0.629154 0.47894  0.102732664474
 H1 0.226504 0.395309 0.62056  0.102732664474
 H1 0.226509 0.895312 0.62056  0.102732664474
 H1 0.726483 0.39531 0.62056  0.102732664474
 H1 0.726485 0.895311 0.62056  0.102732664474
 H1 0.083946 0.165921 0.62335  0.102732664474
 H1 0.083954 0.665924 0.62335  0.102732664474
 H1 0.583923 0.165922 0.62335  0.102732664474
 H1 0.583931 0.665923 0.62335  0.102732664474
 H1 0.099778 0.474549 0.97652  0.102732664474
 H1 0.099785 0.974551 0.97652  0.102732664474
 H1 0.599758 0.474551 0.97652  0.102732664474
 H1 0.599767 0.974555 0.9765  0.102732664474
 H1 0.388155 0.264357 0.97676  0.102732664474
 H1 0.388162 0.764361 0.97676  0.102732664474
 H1 0.888132 0.264361 0.97676  0.102732664474
 H1 0.888135 0.764364 0.97676  0.102732664474
 H1 0.420799 0.29976 0.12008  0.102732664474
 H1 0.420804 0.799762 0.12008  0.102732664474
 H1 0.920779 0.299763 0.12008  0.102732664474
 H1 0.920782 0.799766 0.12008  0.102732664474
 H1 0.139881 0.509245 0.11979  0.102732664474
 H1 0.139888 0.0 0.119  0.102732664474
 H1 0.639859 0.509248 0.119  0.102732664474
 H1 0.639865 0.0 0.11980  0.102732664474
 H1 0.313011 0.142211 0.52384  0.102732664474
 H1 0.313017 0.642214 0.52384  0.102732664474
 H1 0.812988 0.142212 0.52384  0.102732664474
 H1 0.812995 0.642214 0.52384  0.102732664474
 H1 0.448793 0.370847 0.52102  0.102732664474
 H1 0.448795 0.87085 0.52102  0.102732664474
 H1 0.94877 0.370848 0.52102  0.102732664474
 H1 0.948771 0.870851 0.52102  0.102732664474
 H1 0.273479 0.10469 0.37940  0.102732664474
 H1 0.273483 0.604693 0.37940  0.102732664474
 H1 0.773457 0.104691 0.37940  0.102732664474
 H1 0.773461 0.604693 0.37940  0.102732664474
 H1 0.416038 0.334078 0.37661  0.102732664474
 H1 0.416038 0.834081 0.37661  0.102732664474
 H1 0.916015 0.334079 0.37661  0.102732664474
 H1 0.916013 0.834081 0.37661  0.102732664474
 C1 0.466969 0.092846 0.8693  -0.101889210526
 C1 0.46697 0.592847 0.86930  -0.101889210526
 C1 0.96695 0.092846 0.8693  -0.101889210526
 C1 0.966952 0.592849 0.86930  -0.101889210526
 C2 0.030143 0.153918 0.11867  0.678073289474
 C2 0.030144 0.653919 0.11867  0.678073289474
 C2 0.53012 0.153918 0.11867  0.678073289474
 C2 0.530118 0.65392 0.11867  0.678073289474
 C1 0.008326 0.132694 0.03222  -0.101889210526
 C1 0.008327 0.632696 0.03222  -0.101889210526
 C1 0.508307 0.132694 0.03222  -0.101889210526
 C1 0.508306 0.632695 0.03222  -0.101889210526
 C3 0.438232 0.063463 0.99133  -0.0509467105263
 C3 0.438231 0.563465 0.99133  -0.0509467105263
 C3 0.938214 0.063465 0.9913  -0.0509467105263
 C3 0.938215 0.563468 0.99133  -0.0509467105263
 C3 0.057592 0.181922 0.99120  -0.0509467105263
 C3 0.057595 0.681924 0.99120  -0.0509467105263
 C3 0.557574 0.181923 0.99120  -0.0509467105263
 C3 0.557575 0.681924 0.99120  -0.0509467105263
 C3 0.038102 0.161895 0.91043  -0.0509467105263
 C3 0.038106 0.661897 0.91043  -0.0509467105263
 C3 0.538086 0.161896 0.91043  -0.0509467105263
 C3 0.538088 0.661898 0.91043  -0.0509467105263
 C3 0.416733 0.043976 0.91058  -0.0509467105263
 C3 0.416733 0.543978 0.91058  -0.0509467105263
 C3 0.916713 0.043978 0.91058  -0.0509467105263
 C3 0.916714 0.543981 0.91058  -0.0509467105263
 C4 0.445264 0.071961 0.78426  0.360463289474
 C4 0.445264 0.571963 0.78426  0.360463289474
 C4 0.945241 0.071962 0.78426  0.360463289474
 C4 0.945244 0.571964 0.78426  0.360463289474
 C2 0.095905 0.219157 0.38276  0.678073289474
 C2 0.095907 0.719159 0.38276  0.678073289474
 C2 0.595885 0.219156 0.38276  0.678073289474
 C2 0.595885 0.719159 0.38276  0.678073289474
 C4 0.178837 0.304872 0.71668  0.360463289474
 C4 0.178844 0.804874 0.71668  0.360463289474
 C4 0.678818 0.304873 0.71668  0.360463289474
 C4 0.678823 0.804874 0.71668  0.360463289474
 C3 0.166137 0.316323 0.50916  -0.0509467105263
 C3 0.166141 0.816325 0.50916  -0.0509467105263
 C3 0.666116 0.316323 0.50916  -0.0509467105263
 C3 0.666118 0.816324 0.50916  -0.0509467105263
 C3 0.088239 0.187293 0.51072  -0.0509467105263
 C3 0.088244 0.687295 0.5107  -0.0509467105263
 C3 0.588216 0.187293 0.5107  -0.0509467105263
 C3 0.588222 0.687294 0.5107  -0.0509467105263
 C3 0.187516 0.33706 0.58992  -0.0509467105263
 C3 0.187521 0.837062 0.58992  -0.0509467105263
 C3 0.687494 0.33706 0.58992  -0.0509467105263
 C3 0.687497 0.837062 0.58992  -0.0509467105263
 C1 0.117082 0.241324 0.46919  -0.101889210526
 C1 0.117087 0.741326 0.469  -0.101889210526
 C1 0.617062 0.241324 0.469  -0.101889210526
 C1 0.617063 0.741325 0.469  -0.101889210526
 C3 0.107239 0.208101 0.59147  -0.0509467105263
 C3 0.107245 0.708104 0.59147  -0.0509467105263
 C3 0.607217 0.208102 0.59147  -0.0509467105263
 C3 0.607223 0.708103 0.5914  -0.0509467105263
 C1 0.157642 0.283099 0.63165  -0.101889210526
 C1 0.157649 0.783102 0.63165  -0.101889210526
 C1 0.657621 0.2831 0.63165  -0.101889210526
 C1 0.657627 0.783101 0.63165  -0.101889210526
 C1 0.033011 0.407154 0.13066  -0.101889210526
 C1 0.033016 0.907156 0.13066  -0.101889210526
 C1 0.532994 0.407154 0.13066  -0.101889210526
 C1 0.533 0.907157 0.13066  -0.101889210526
 C2 0.46984 0.34608 0.88129  0.678073289474
 C2 0.469849 0.846085 0.88129  0.678073289474
 C2 0.969818 0.346082 0.88129  0.678073289474
 C2 0.969825 0.846086 0.88129  0.678073289474
 C1 0.491654 0.367305 0.96775  -0.101889210526
 C1 0.491662 0.867309 0.96775  -0.101889210526
 C1 0.991636 0.367306 0.96775  -0.101889210526
 C1 0.991641 0.867309 0.96775  -0.101889210526
 C3 0.061747 0.436535 0.00863  -0.0509467105263
 C3 0.061753 0.936537 0.00863  -0.0509467105263
 C3 0.561729 0.436536 0.00863  -0.0509467105263
 C3 0.561737 0.93654 0.00863  -0.0509467105263
 C3 0.442388 0.318076 0.00877  -0.0509467105263
 C3 0.442395 0.818079 0.00877  -0.0509467105263
 C3 0.942369 0.318078 0.00877  -0.0509467105263
 C3 0.942373 0.818081 0.00877  -0.0509467105263
 C3 0.461877 0.338103 0.08953  -0.0509467105263
 C3 0.461882 0.838106 0.08953  -0.0509467105263
 C3 0.961858 0.338105 0.08953  -0.0509467105263
 C3 0.961862 0.838108 0.08953  -0.0509467105263
 C3 0.083249 0.456022 0.08938  -0.0509467105263
 C3 0.083255 0.956024 0.08938  -0.0509467105263
 C3 0.583229 0.456023 0.08938  -0.0509467105263
 C3 0.583236 0.956026 0.08938  -0.0509467105263
 C4 0.05472 0.428039 0.2157  0.360463289474
 C4 0.054724 0.928041 0.21571  0.360463289474
 C4 0.554701 0.428039 0.2157  0.360463289474
 C4 0.554705 0.928042 0.21571  0.360463289474
 C2 0.404076 0.280843 0.61721  0.678073289474
 C2 0.404082 0.780846 0.61721  0.678073289474
 C2 0.904056 0.280844 0.61721  0.678073289474
 C2 0.90406 0.780847 0.61721  0.678073289474
 C4 0.321144 0.195128 0.28329  0.360463289474
 C4 0.321145 0.69513 0.28329  0.360463289474
 C4 0.821124 0.195129 0.28329  0.360463289474
 C4 0.821124 0.695131 0.28329  0.360463289474
 C3 0.333846 0.183677 0.49080  -0.0509467105263
 C3 0.333851 0.68368 0.49080  -0.0509467105263
 C3 0.833824 0.183678 0.49080  -0.0509467105263
 C3 0.833829 0.68368 0.49080  -0.0509467105263
 C3 0.411745 0.312707 0.48924  -0.0509467105263
 C3 0.411748 0.81271 0.48924  -0.0509467105263
 C3 0.911723 0.312708 0.48924  -0.0509467105263
 C3 0.911725 0.81271 0.48924  -0.0509467105263
 C3 0.312467 0.16294 0.41004  -0.0509467105263
 C3 0.312471 0.662943 0.41004  -0.0509467105263
 C3 0.812445 0.162941 0.41004  -0.0509467105263
 C3 0.812449 0.662943 0.4100  -0.0509467105263
 C1 0.382899 0.258676 0.53077  -0.101889210526
 C1 0.382904 0.758679 0.53077  -0.101889210526
 C1 0.882877 0.258677 0.53077  -0.101889210526
 C1 0.882882 0.758679 0.53077  -0.101889210526
 C3 0.392744 0.291898 0.40849  -0.0509467105263
 C3 0.392746 0.791901 0.40849  -0.0509467105263
 C3 0.892722 0.291899 0.40849  -0.0509467105263
 C3 0.892723 0.791902 0.40849  -0.0509467105263
 C1 0.34234 0.2169 0.36832  -0.101889210526
 C1 0.342342 0.716903 0.36832  -0.101889210526
 C1 0.842319 0.216902 0.36832  -0.101889210526
 C1 0.84232 0.716904 0.36832  -0.101889210526
 N1 0.441775 0.118722 0.73814  -0.314661710526
 N1 0.441779 0.618725 0.73814  -0.314661710526
 N1 0.941755 0.118724 0.7381  -0.314661710526
 N1 0.94176 0.618727 0.73814  -0.314661710526
 N1 0.113225 0.28275 0.76283  -0.314661710526
 N1 0.113231 0.782753 0.76283  -0.314661710526
 N1 0.613207 0.28275 0.76283  -0.314661710526
 N1 0.613212 0.782751 0.76283  -0.314661710526
 N2 0.254695 0.355868 0.83762  -0.0666842105263
 N2 0.254702 0.855869 0.83762  -0.0666842105263
 N2 0.754676 0.35587 0.83762  -0.0666842105263
 N2 0.754683 0.855868 0.83762  -0.0666842105263
 N2 0.162804 0.315493 0.83787  -0.0666842105263
 N2 0.162809 0.815496 0.83787  -0.0666842105263
 N2 0.662787 0.315492 0.83787  -0.0666842105263
 N2 0.662789 0.815498 0.83787  -0.0666842105263
 N2 0.418879 0.076695 0.66288  -0.0666842105263
 N2 0.418881 0.576698 0.66288  -0.0666842105263
 N2 0.918851 0.076696 0.6628  -0.0666842105263
 N2 0.918861 0.576699 0.66288  -0.0666842105263
 N2 0.408606 0.00723 0.66284  -0.0666842105263
 N2 0.408607 0.507233 0.66284  -0.0666842105263
 N2 0.908582 0.007231 0.66284  -0.0666842105263
 N2 0.908581 0.507234 0.66284  -0.0666842105263
 N1 0.267175 0.350394 0.76244  -0.314661710526
 N1 0.267182 0.850397 0.76244  -0.314661710526
 N1 0.767155 0.350396 0.76244  -0.314661710526
 N1 0.76716 0.850398 0.76244  -0.314661710526
 N1 0.424864 0.002401 0.73805  -0.314661710526
 N1 0.424862 0.502403 0.73805  -0.314661710526
 N1 0.92484 0.002402 0.73805  -0.314661710526
 N1 0.924841 0.502404 0.73805  -0.314661710526
 N1 0.058206 0.381277 0.26182  -0.314661710526
 N1 0.058208 0.881279 0.26182  -0.314661710526
 N1 0.558186 0.381278 0.26182  -0.314661710526
 N1 0.55819 0.88128 0.26182  -0.314661710526
 N1 0.386755 0.217251 0.23714  -0.314661710526
 N1 0.386756 0.717253 0.23714  -0.314661710526
 N1 0.886737 0.21725 0.23714  -0.314661710526
 N1 0.886736 0.717252 0.23714  -0.314661710526
 N2 0.245285 0.144133 0.16234  -0.0666842105263
 N2 0.245285 0.644136 0.16234  -0.0666842105263
 N2 0.745266 0.144134 0.16234  -0.0666842105263
 N2 0.745266 0.644134 0.16234  -0.0666842105263
 N2 0.337176 0.184508 0.16210  -0.0666842105263
 N2 0.337176 0.684511 0.16210  -0.0666842105263
 N2 0.837158 0.184508 0.16210  -0.0666842105263
 N2 0.837157 0.684511 0.16210  -0.0666842105263
 N2 0.081109 0.423305 0.33708  -0.0666842105263
 N2 0.081112 0.923306 0.33708  -0.0666842105263
 N2 0.581088 0.423305 0.33708  -0.0666842105263
 N2 0.581093 0.923307 0.33708  -0.0666842105263
 N2 0.091387 0.49277 0.33712  -0.0666842105263
 N2 0.091382 0.992771 0.33712  -0.0666842105263
 N2 0.591353 0.492769 0.33712  -0.0666842105263
 N2 0.591355 0.992771 0.33712  -0.0666842105263
 N1 0.232807 0.149605 0.23752  -0.314661710526
 N1 0.232807 0.649608 0.23752  -0.314661710526
 N1 0.732787 0.149606 0.23752  -0.314661710526
 N1 0.732786 0.649608 0.23752  -0.314661710526
 N1 0.075124 0.497599 0.26191  -0.314661710526
 N1 0.075125 0.997601 0.2619  -0.314661710526
 N1 0.575103 0.4976 0.26191  -0.314661710526
 N1 0.575106 0.997602 0.2619  -0.314661710526
 O1 0.005513 0.101516 0.1531  -0.594079210526
 O1 0.005512 0.601518 0.1531  -0.594079210526
 O1 0.505494 0.101515 0.15312  -0.594079210526
 O1 0.505493 0.601517 0.15312  -0.594079210526
 O1 0.072017 0.223264 0.15303  -0.594079210526
 O1 0.072016 0.723266 0.1530  -0.594079210526
 O1 0.572003 0.223263 0.15303  -0.594079210526
 O1 0.572003 0.723265 0.15303  -0.594079210526
 O1 0.117487 0.271211 0.34768  -0.594079210526
 O1 0.117487 0.771212 0.34768  -0.594079210526
 O1 0.61747 0.27121 0.34768  -0.594079210526
 O1 0.617472 0.771212 0.34768  -0.594079210526
 O1 0.057629 0.149493 0.34888  -0.594079210526
 O1 0.057628 0.649495 0.34888  -0.594079210526
 O1 0.557606 0.149493 0.34888  -0.594079210526
 O1 0.557608 0.649495 0.34888  -0.594079210526
 O1 0.494466 0.398483 0.84684  -0.594079210526
 O1 0.494476 0.898487 0.84684  -0.594079210526
 O1 0.994447 0.398485 0.84684  -0.594079210526
 O1 0.994455 0.898488 0.84684  -0.594079210526
 O1 0.427957 0.276735 0.84694  -0.594079210526
 O1 0.427964 0.77674 0.84694  -0.594079210526
 O1 0.927943 0.276736 0.84694  -0.594079210526
 O1 0.927949 0.77674 0.84694  -0.594079210526
 O1 0.382494 0.228789 0.65229  -0.594079210526
 O1 0.382499 0.728792 0.65229  -0.594079210526
 O1 0.882478 0.22879 0.65229  -0.594079210526
 O1 0.882482 0.728793 0.65229  -0.594079210526
 O1 0.442355 0.350507 0.65108  -0.594079210526
 O1 0.442361 0.850509 0.65108  -0.594079210526
 O1 0.942334 0.350508 0.65108  -0.594079210526
 O1 0.942339 0.850511 0.65108  -0.594079210526
