#======================================================================

# CRYSTAL DATA

#----------------------------------------------------------------------

data_VESTA_phase_1


_pd_phase_name                         MOF
_cell_length_a                         17.38300
_cell_length_b                         18.64500
_cell_length_c                         18.18400
_cell_angle_alpha                      90.39800
_cell_angle_beta                       90.03500
_cell_angle_gamma                      90.00700
_symmetry_space_group_name_H-M         "P 1"
_symmetry_Int_Tables_number            1

loop_
_symmetry_equiv_pos_as_xyz
   "x, y, z"

loop_
   _atom_site_label
   _atom_site_fract_x
   _atom_site_fract_y
   _atom_site_fract_z
 _atom_site_charge
 Zn1 0.826591 0.678104 0.05978  1.19526300595
 Zn1 0.700152 0.180949 0.38453  1.19526300595
 Zn1 0.826432 0.68088 0.88468  1.19526300595
 Zn1 0.700036 0.178243 0.55958  1.19526300595
 Zn1 0.693569 0.593906 0.97491  1.19526300595
 Zn1 0.693203 0.764804 0.97196  1.19526300595
 Zn1 0.833177 0.094171 0.47517  1.19526300595
 Zn1 0.833479 0.265023 0.47172  1.19526300595
 Zn1 0.173652 0.31846 0.11562  1.19526300595
 Zn1 0.300076 0.82001 0.44034  1.19526300595
 Zn1 0.17328 0.32163 0.94024  1.19526300595
 Zn1 0.299961 0.818744 0.61560  1.19526300595
 Zn1 0.306468 0.404274 0.02509  1.19526300595
 Zn1 0.306859 0.234333 0.02815  1.19526300595
 Zn1 0.166826 0.903921 0.52500  1.19526300595
 Zn1 0.166455 0.734193 0.52832  1.19526300595
 H1 0.312907 0.578655 0.03373  0.116335193452
 H1 0.864364 0.524318 0.22385  0.116335193452
 H1 0.65496 0.437995 0.13397  0.116335193452
 H1 0.656789 0.340544 0.22781  0.116335193452
 H1 0.865752 0.427065 0.31863  0.116335193452
 H1 0.065651 0.714889 0.86082  0.116335193452
 H1 0.208507 0.716401 0.86272  0.116335193452
 H1 0.205764 0.638534 0.08550  0.116335193452
 H1 0.070232 0.081616 0.53726  0.116335193452
 H1 0.67244 0.031131 0.21608  0.116335193452
 H1 0.855787 0.922217 0.32790  0.116335193452
 H1 0.853006 0.8249 0.23246  0.116335193452
 H1 0.669673 0.933465 0.12047  0.116335193452
 H1 0.46362 0.153 0.58775  0.116335193452
 H1 0.071435 0.276056 0.4114  0.116335193452
 H1 0.214589 0.274545 0.4100  0.116335193452
 H1 0.455606 0.577185 0.03017  0.116335193452
 H1 0.859431 0.528073 0.72058  0.116335193452
 H1 0.671978 0.420771 0.82765  0.116335193452
 H1 0.675475 0.324063 0.73156  0.116335193452
 H1 0.862518 0.431262 0.62403  0.116335193452
 H1 0.062886 0.639667 0.08365  0.116335193452
 H1 0.455454 0.779114 0.91744  0.116335193452
 H1 0.312364 0.778874 0.91659  0.116335193452
 H1 0.212652 0.082549 0.54090  0.116335193452
 H1 0.661592 0.02539 0.72440  0.116335193452
 H1 0.864277 0.931828 0.62847  0.116335193452
 H1 0.86134 0.83433 0.72213  0.116335193452
 H1 0.659471 0.92832 0.81929  0.116335193452
 H1 0.460322 0.199065 0.35661  0.116335193452
 H1 0.317095 0.20005 0.35830  0.116335193452
 H1 0.320459 0.152449 0.58993  0.116335193452
 H1 0.686772 0.420787 0.96668  0.116335193452
 H1 0.142288 0.469709 0.28073  0.116335193452
 H1 0.330069 0.576567 0.17374  0.116335193452
 H1 0.326067 0.673781 0.26933  0.116335193452
 H1 0.138366 0.56722 0.37651  0.116335193452
 H1 0.936688 0.359318 0.91588  0.116335193452
 H1 0.930318 0.916987 0.46315  0.116335193452
 H1 0.337445 0.972371 0.27455  0.116335193452
 H1 0.135438 0.066267 0.37142  0.116335193452
 H1 0.138253 0.163868 0.2779  0.116335193452
 H1 0.33954 0.069609 0.17993  0.116335193452
 H1 0.539801 0.798735 0.64304  0.116335193452
 H1 0.92781 0.722077 0.58815  0.116335193452
 H1 0.784664 0.724155 0.58916  0.116335193452
 H1 0.544019 0.421668 0.97010  0.116335193452
 H1 0.135147 0.476183 0.7777  0.116335193452
 H1 0.344921 0.562442 0.86690  0.116335193452
 H1 0.342957 0.659643 0.77282  0.116335193452
 H1 0.133736 0.573063 0.68263  0.116335193452
 H1 0.9348 0.287516 0.13993  0.116335193452
 H1 0.791917 0.285167 0.13829  0.116335193452
 H1 0.793788 0.359806 0.91434  0.116335193452
 H1 0.545065 0.219962 0.08326  0.116335193452
 H1 0.6882 0.220916 0.08438  0.116335193452
 H1 0.787899 0.916598 0.45901  0.116335193452
 H1 0.328264 0.969219 0.78304  0.116335193452
 H1 0.143622 0.07719 0.67219  0.116335193452
 H1 0.146388 0.174499 0.76763  0.116335193452
 H1 0.331013 0.066862 0.87862  0.116335193452
 H1 0.536139 0.848265 0.41269  0.116335193452
 H1 0.679284 0.848844 0.4102  0.116335193452
 H1 0.683025 0.797933 0.64115  0.116335193452
 C1 0.763779 0.319348 0.33391  0.710785297619
 C2 0.343857 0.622994 0.00871  -0.0891768377976
 C3 0.761651 0.378011 0.27845  -0.0596876190476
 C3 0.759753 0.486546 0.17331  -0.0596876190476
 C1 0.759899 0.543267 0.11571  0.710785297619
 C2 0.819174 0.483927 0.2254  -0.0891768377976
 C2 0.700765 0.435246 0.17463  -0.0891768377976
 C2 0.701825 0.381106 0.22679  -0.0891768377976
 C2 0.820018 0.430021 0.27784  -0.0891768377976
 C2 0.096918 0.698981 0.90999  -0.0891768377976
 C2 0.176831 0.700126 0.9115  -0.0891768377976
 C2 0.175346 0.655177 0.03602  -0.0891768377976
 C1 0.760193 0.815918 0.11302  0.710785297619
 C2 0.102235 0.124633 0.51097  -0.0891768377976
 C3 0.761201 0.873555 0.17081  -0.0596876190476
 C3 0.764251 0.982541 0.2776  -0.0596876190476
 C1 0.76604 0.041217 0.33424  0.710785297619
 C2 0.711631 0.98572 0.21916  -0.0891768377976
 C2 0.81512 0.924292 0.28245  -0.0891768377976
 C2 0.813616 0.870174 0.22941  -0.0891768377976
 C2 0.710063 0.931594 0.16620  -0.0891768377976
 C2 0.430924 0.162811 0.53773  -0.0891768377976
 C2 0.103067 0.233544 0.43901  -0.0891768377976
 C2 0.183013 0.232546 0.43852  -0.0891768377976
 C1 0.769727 0.315262 0.61353  0.710785297619
 C2 0.423806 0.621809 0.00656  -0.0891768377976
 C3 0.769106 0.372132 0.67209  -0.0596876190476
 C3 0.7656 0.480201 0.77982  -0.0596876190476
 C1 0.762937 0.538805 0.83645  0.710785297619
 C2 0.819526 0.483119 0.72249  -0.0891768377976
 C2 0.713793 0.422555 0.78317  -0.0891768377976
 C2 0.715603 0.368844 0.72973  -0.0891768377976
 C2 0.821281 0.429461 0.66902  -0.0891768377976
 C2 0.095391 0.655796 0.03534  -0.0891768377976
 C2 0.423597 0.735079 0.94205  -0.0891768377976
 C2 0.343628 0.734721 0.94183  -0.0891768377976
 C1 0.758963 0.817849 0.83269  0.710785297619
 C2 0.182192 0.12545 0.51288  -0.0891768377976
 C3 0.760187 0.875605 0.77615  -0.0596876190476
 C3 0.763055 0.984252 0.67092  -0.0596876190476
 C1 0.764365 0.041849 0.61415  0.710785297619
 C2 0.705116 0.983422 0.7246  -0.0891768377976
 C2 0.819658 0.930647 0.67034  -0.0891768377976
 C2 0.818017 0.876454 0.72243  -0.0891768377976
 C2 0.703824 0.929545 0.77707  -0.0891768377976
 C2 0.42913 0.189524 0.40754  -0.0891768377976
 C2 0.349152 0.190527 0.40885  -0.0891768377976
 C2 0.350963 0.1624 0.53860  -0.0891768377976
 C3 0.464464 0.678141 0.97362  -0.0596876190476
 C1 0.969721 0.678711 0.97174  0.710785297619
 C1 0.550149 0.677795 0.97239  0.710785297619
 C3 0.302375 0.678877 0.97542  -0.0596876190476
 C3 0.055395 0.677576 0.97222  -0.0596876190476
 C3 0.217453 0.678131 0.97443  -0.0596876190476
 C3 0.061931 0.178926 0.47432  -0.0596876190476
 C1 0.556537 0.177621 0.47175  0.710785297619
 C1 0.976244 0.17856 0.47259  0.710785297619
 C3 0.223856 0.178633 0.47567  -0.0596876190476
 C3 0.470807 0.176432 0.47219  -0.0596876190476
 C3 0.308777 0.177154 0.47440  -0.0596876190476
 C1 0.23092 0.683502 0.38652  0.710785297619
 C2 0.65597 0.376406 0.99179  -0.0891768377976
 C3 0.232031 0.626095 0.32854  -0.0596876190476
 C3 0.236304 0.517369 0.22160  -0.0596876190476
 C1 0.238869 0.458568 0.16522  0.710785297619
 C2 0.182118 0.514713 0.2787  -0.0891768377976
 C2 0.288078 0.575004 0.21809  -0.0891768377976
 C2 0.285941 0.629006 0.27121  -0.0891768377976
 C2 0.179915 0.568741 0.33177  -0.0891768377976
 C2 0.904373 0.343834 0.96454  -0.0891768377976
 C1 0.24059 0.180726 0.16716  0.710785297619
 C2 0.898024 0.874001 0.4891  -0.0891768377976
 C3 0.239158 0.122601 0.22345  -0.0596876190476
 C3 0.236356 0.013628 0.32859  -0.0596876190476
 C1 0.2353 0.955954 0.38538  0.710785297619
 C2 0.29404 0.014453 0.27460  -0.0891768377976
 C2 0.179906 0.06738 0.32939  -0.0891768377976
 C2 0.181495 0.121673 0.2773  -0.0891768377976
 C2 0.295309 0.068454 0.22227  -0.0891768377976
 C2 0.570926 0.809019 0.59223  -0.0891768377976
 C2 0.896458 0.764816 0.56071  -0.0891768377976
 C2 0.816529 0.766134 0.5609  -0.0891768377976
 C1 0.23602 0.680557 0.66663  0.710785297619
 C2 0.576021 0.377238 0.9938  -0.0891768377976
 C3 0.237999 0.622135 0.72241  -0.0596876190476
 C3 0.239963 0.513902 0.82798  -0.0596876190476
 C1 0.24002 0.457104 0.88553  0.710785297619
 C2 0.180405 0.516499 0.77596  -0.0891768377976
 C2 0.298992 0.565144 0.82637  -0.0891768377976
 C2 0.297868 0.61914 0.77404  -0.0891768377976
 C2 0.179544 0.570217 0.72336  -0.0891768377976
 C2 0.903325 0.302554 0.09059  -0.0891768377976
 C2 0.823422 0.300938 0.0892  -0.0891768377976
 C2 0.824419 0.344073 0.96401  -0.0891768377976
 C2 0.576738 0.264084 0.05860  -0.0891768377976
 C2 0.656709 0.264829 0.0589  -0.0891768377976
 C1 0.239815 0.183961 0.88666  0.710785297619
 C2 0.818074 0.873487 0.48697  -0.0891768377976
 C3 0.238827 0.126335 0.82881  -0.0596876190476
 C3 0.235797 0.017308 0.72193  -0.0596876190476
 C1 0.234018 0.958549 0.66540  0.710785297619
 C2 0.288786 0.014427 0.7801  -0.0891768377976
 C2 0.184581 0.075315 0.71741  -0.0891768377976
 C2 0.18608 0.12944 0.77046  -0.0891768377976
 C2 0.290339 0.068553 0.83312  -0.0891768377976
 C2 0.568921 0.837659 0.46248  -0.0891768377976
 C2 0.648878 0.838129 0.46150  -0.0891768377976
 C2 0.65089 0.808133 0.59080  -0.0891768377976
 C3 0.535633 0.320723 0.02677  -0.0596876190476
 C1 0.030252 0.322398 0.02830  0.710785297619
 C1 0.449963 0.320672 0.02776  0.710785297619
 C3 0.697677 0.320765 0.02523  -0.0596876190476
 C3 0.944587 0.323228 0.02794  -0.0596876190476
 C3 0.782588 0.321851 0.02605  -0.0596876190476
 C3 0.937938 0.819459 0.52583  -0.0596876190476
 C1 0.44345 0.821277 0.52828  0.710785297619
 C1 0.023589 0.819608 0.52797  0.710785297619
 C3 0.776052 0.820423 0.52399  -0.0596876190476
 C3 0.529156 0.82294 0.52784  -0.0596876190476
 C3 0.691158 0.822276 0.52536  -0.0596876190476
 O1 0.713073 0.534602 0.06225  -0.635057202381
 O1 0.809949 0.327803 0.3878  -0.635057202381
 O1 0.806753 0.595375 0.1243  -0.635057202381
 O1 0.719618 0.265567 0.32249  -0.635057202381
 O1 0.936091 0.671222 0.03373  -0.635057202381
 O1 0.813532 0.033744 0.38743  -0.635057202381
 O1 0.709672 0.821868 0.06235  -0.635057202381
 O1 0.720097 0.093677 0.32479  -0.635057202381
 O1 0.809887 0.765951 0.11908  -0.635057202381
 O1 0.589855 0.181502 0.40915  -0.635057202381
 O1 0.713801 0.53172 0.88826  -0.635057202381
 O1 0.819968 0.321718 0.56270  -0.635057202381
 O1 0.809651 0.590902 0.82811  -0.635057202381
 O1 0.719851 0.265427 0.61917  -0.635057202381
 O1 0.936471 0.687411 0.90957  -0.635057202381
 O1 0.813169 0.034544 0.56220  -0.635057202381
 O1 0.713764 0.82725 0.88724  -0.635057202381
 O1 0.71676 0.093503 0.62204  -0.635057202381
 O1 0.803119 0.763992 0.82179  -0.635057202381
 O1 0.590137 0.174935 0.53424  -0.635057202381
 O2 0.75979 0.679271 0.97226  -1.38211011905
 O1 0.583376 0.617255 0.98141  -0.635057202381
 O1 0.583683 0.737962 0.96233  -0.635057202381
 O2 0.766742 0.179594 0.47214  -1.38211011905
 O1 0.942994 0.118531 0.48440  -0.635057202381
 O1 0.942722 0.238124 0.45930  -0.635057202381
 O1 0.28669 0.465857 0.11238  -0.635057202381
 O1 0.180126 0.677928 0.43694  -0.635057202381
 O1 0.193111 0.405967 0.17482  -0.635057202381
 O1 0.281123 0.733063 0.38075  -0.635057202381
 O1 0.063566 0.315372 0.09066  -0.635057202381
 O1 0.186473 0.96286 0.43737  -0.635057202381
 O1 0.286355 0.171902 0.11293  -0.635057202381
 O1 0.283232 0.904585 0.37751  -0.635057202381
 O1 0.196135 0.234367 0.17796  -0.635057202381
 O1 0.409832 0.825061 0.46588  -0.635057202381
 O1 0.287303 0.46523 0.93871  -0.635057202381
 O1 0.190046 0.671886 0.61253  -0.635057202381
 O1 0.192777 0.405286 0.877  -0.635057202381
 O1 0.280137 0.734373 0.67794  -0.635057202381
 O1 0.063748 0.328434 0.96607  -0.635057202381
 O1 0.186541 0.965761 0.61217  -0.635057202381
 O1 0.290299 0.177953 0.93735  -0.635057202381
 O1 0.280072 0.906164 0.67501  -0.635057202381
 O1 0.190141 0.233966 0.88062  -0.635057202381
 O1 0.410162 0.815839 0.59078  -0.635057202381
 O2 0.239902 0.319304 0.02781  -1.38211011905
 O1 0.416582 0.381131 0.01862  -0.635057202381
 O1 0.416585 0.260381 0.03765  -0.635057202381
 O2 0.233561 0.819032 0.52792  -1.38211011905
 O1 0.056949 0.879816 0.51739  -0.635057202381
 O1 0.056937 0.759766 0.54045  -0.635057202381
