#======================================================================

# CRYSTAL DATA

#----------------------------------------------------------------------

data_VESTA_phase_1


_pd_phase_name                         MOF
_cell_length_a                         17.28800
_cell_length_b                         17.27600
_cell_length_c                         17.33500
_cell_angle_alpha                      85.83400
_cell_angle_beta                       86.33600
_cell_angle_gamma                      86.54000
_symmetry_space_group_name_H-M         "P 1"
_symmetry_Int_Tables_number            1

loop_
_symmetry_equiv_pos_as_xyz
   "x, y, z"

loop_
   _atom_site_label
   _atom_site_fract_x
   _atom_site_fract_y
   _atom_site_fract_z
 _atom_site_charge
 Zn1 0.880416 0.887063 0.74724  1.11546857477
 Zn1 0.749584 0.880503 0.88660  1.11546857477
 Zn1 0.886288 0.749802 0.88283  1.11546857477
 Zn1 0.756446 0.757211 0.75664  1.11546857477
 Zn1 0.11956 0.11296 0.25275  1.11546857477
 Zn1 0.250413 0.119522 0.11339  1.11546857477
 Zn1 0.113715 0.250226 0.11717  1.11546857477
 Zn1 0.243535 0.242826 0.24335  1.11546857477
 H1 0.916198 0.911436 0.5054  0.0938460747664
 H1 0.744628 0.747213 0.37655  0.0938460747664
 H1 0.742263 0.743273 0.52121  0.0938460747664
 H1 0.0 0.00969 0.33342  0.0938460747664
 H1 0.936437 0.016175 0.41717  0.0938460747664
 H1 0.016774 0.94498 0.41778  0.0938460747664
 H1 0.7167 0.880882 0.12199  0.0938460747664
 H1 0.945142 0.770799 0.26030  0.0938460747664
 H1 0.941767 0.761141 0.11828  0.0938460747664
 H1 0.600943 0.948803 0.2854  0.0938460747664
 H1 0.651921 0.96877 0.19353  0.0938460747664
 H1 0.612641 0.875386 0.21675  0.0938460747664
 H1 0.507808 0.915024 0.91116  0.0938460747664
 H1 0.37474 0.748413 0.74592  0.0938460747664
 H1 0.519767 0.745268 0.74155  0.0938460747664
 H1 0.336854 0.0 0.00916  0.0938460747664
 H1 0.420314 0.93482 0.01585  0.0938460747664
 H1 0.421048 0.015982 0.94474  0.0938460747664
 H1 0.121074 0.718651 0.88110  0.0938460747664
 H1 0.259837 0.947704 0.76970  0.0938460747664
 H1 0.11736 0.944827 0.76056  0.0938460747664
 H1 0.284562 0.602331 0.95028  0.0938460747664
 H1 0.193118 0.653933 0.96955  0.0938460747664
 H1 0.214918 0.614177 0.87719  0.0938460747664
 H1 0.909956 0.507505 0.91667  0.0938460747664
 H1 0.75071 0.376461 0.742  0.0938460747664
 H1 0.74518 0.521514 0.74083  0.0938460747664
 H1 0.008915 0.336303 0.  0.0938460747664
 H1 0.01557 0.420875 0.93692  0.0938460747664
 H1 0.9436 0.419683 0.01659  0.0938460747664
 H1 0.879727 0.123297 0.71487  0.0938460747664
 H1 0.774662 0.258778 0.94488  0.0938460747664
 H1 0.763941 0.116391 0.94169  0.0938460747664
 H1 0.949143 0.288247 0.59902  0.0938460747664
 H1 0.969042 0.196303 0.65075  0.0938460747664
 H1 0.876028 0.218119 0.61119  0.0938460747664
 H1 0.083782 0.088592 0.49454  0.0938460747664
 H1 0.255388 0.252774 0.62345  0.0938460747664
 H1 0.257749 0.256725 0.478  0.0938460747664
 H1 0.997815 0.990344 0.66658  0.0938460747664
 H1 0.063529 0.983848 0.58283  0.0938460747664
 H1 0.983201 0.055054 0.58222  0.0938460747664
 H1 0.283314 0.119151 0.87801  0.0938460747664
 H1 0.054849 0.22918 0.73971  0.0938460747664
 H1 0.058228 0.238852 0.88172  0.0938460747664
 H1 0.399076 0.051233 0.71458  0.0938460747664
 H1 0.348104 0.031266 0.8064  0.0938460747664
 H1 0.387368 0.124657 0.7832  0.0938460747664
 H1 0.492206 0.084979 0.08886  0.0938460747664
 H1 0.625233 0.251863 0.25386  0.0938460747664
 H1 0.48021 0.254991 0.25822  0.0938460747664
 H1 0.663154 0.998755 0.9909  0.0938460747664
 H1 0.579693 0.0651 0.98419  0.0938460747664
 H1 0.578961 0.984011 0.05538  0.0938460747664
 H1 0.878958 0.281484 0.11895  0.0938460747664
 H1 0.740118 0.052401 0.23015  0.0938460747664
 H1 0.882593 0.055233 0.23934  0.0938460747664
 H1 0.715522 0.397867 0.04975  0.0938460747664
 H1 0.806941 0.346227 0.03046  0.0938460747664
 H1 0.785176 0.385973 0.12282  0.0938460747664
 H1 0.090038 0.492529 0.08333  0.0938460747664
 H1 0.249274 0.623564 0.25742  0.0938460747664
 H1 0.254799 0.47851 0.25918  0.0938460747664
 H1 0.991084 0.663724 0.99725  0.0938460747664
 H1 0.984437 0.579147 0.06307  0.0938460747664
 H1 0.056413 0.580354 0.98341  0.0938460747664
 H1 0.120241 0.876731 0.28513  0.0938460747664
 H1 0.225345 0.741248 0.05514  0.0938460747664
 H1 0.236052 0.883636 0.05833  0.0938460747664
 H1 0.050842 0.711766 0.40098  0.0938460747664
 H1 0.030936 0.803713 0.34927  0.0938460747664
 H1 0.123954 0.781899 0.38882  0.0938460747664
 C1 0.827549 0.825721 0.60743  0.729191074766
 C2 0.829561 0.827041 0.5212  -0.0613505919003
 C3 0.879537 0.875593 0.47601  -0.134567258567
 C4 0.880892 0.877553 0.39523  0.228411074766
 C2 0.832198 0.830426 0.35865  -0.0613505919003
 C3 0.782496 0.782975 0.40504  -0.134567258567
 C3 0.780854 0.780528 0.48552  -0.134567258567
 C5 0.973175 0.976397 0.38170  -0.0109189252336
 C1 0.822906 0.81349 0.02775  0.729191074766
 C2 0.827983 0.819686 0.11245  -0.0613505919003
 C3 0.765705 0.856734 0.15376  -0.134567258567
 C4 0.767579 0.86186 0.23347  0.228411074766
 C2 0.832607 0.83015 0.27299  -0.0613505919003
 C3 0.894928 0.795263 0.23017  -0.134567258567
 C3 0.893197 0.789197 0.15059  -0.134567258567
 C5 0.639976 0.923837 0.24035  -0.0109189252336
 C1 0.608258 0.827716 0.82458  0.729191074766
 C2 0.521753 0.830352 0.82609  -0.0613505919003
 C3 0.477465 0.879455 0.87509  -0.134567258567
 C4 0.396448 0.881391 0.87715  0.228411074766
 C2 0.358636 0.83402 0.82982  -0.0613505919003
 C3 0.404133 0.785243 0.7818  -0.134567258567
 C3 0.484837 0.783131 0.77923  -0.134567258567
 C5 0.384728 0.972228 0.97609  -0.0109189252336
 C1 0.026246 0.825387 0.81387  0.729191074766
 C2 0.111362 0.830515 0.81962  -0.0613505919003
 C3 0.152943 0.767853 0.85679  -0.134567258567
 C4 0.232951 0.769496 0.8617  0.228411074766
 C2 0.272651 0.834734 0.82971  -0.0613505919003
 C3 0.229634 0.897372 0.7945  -0.134567258567
 C3 0.149702 0.895882 0.78874  -0.134567258567
 C5 0.239455 0.641581 0.924  -0.0109189252336
 C1 0.824645 0.608976 0.8276  0.729191074766
 C2 0.827152 0.522442 0.82915  -0.0613505919003
 C3 0.875239 0.47755 0.8794  -0.134567258567
 C4 0.878082 0.396488 0.88047  0.228411074766
 C2 0.832314 0.359215 0.83111  -0.0613505919003
 C3 0.785436 0.405382 0.78098  -0.134567258567
 C3 0.782105 0.486108 0.77968  -0.134567258567
 C5 0.975689 0.384284 0.97339  -0.0109189252336
 C1 0.813327 0.027042 0.82209  0.729191074766
 C2 0.820389 0.112054 0.82703  -0.0613505919003
 C3 0.856718 0.154476 0.76426  -0.134567258567
 C4 0.86246 0.234473 0.76602  0.228411074766
 C2 0.832126 0.273237 0.83151  -0.0613505919003
 C3 0.798106 0.229283 0.89433  -0.134567258567
 C3 0.791412 0.149459 0.89269  -0.134567258567
 C5 0.924127 0.242624 0.63834  -0.0109189252336
 C1 0.172451 0.174289 0.39256  0.729191074766
 C2 0.170438 0.17297 0.47877  -0.0613505919003
 C3 0.120452 0.124427 0.52398  -0.134567258567
 C4 0.119098 0.122464 0.60477  0.228411074766
 C2 0.167804 0.169577 0.64135  -0.0613505919003
 C3 0.217511 0.217022 0.59496  -0.134567258567
 C3 0.219153 0.219473 0.5144  -0.134567258567
 C5 0.026797 0.023631 0.61830  -0.0109189252336
 C1 0.177103 0.186557 0.97225  0.729191074766
 C2 0.172021 0.180331 0.88756  -0.0613505919003
 C3 0.234304 0.143288 0.84624  -0.134567258567
 C4 0.232429 0.138156 0.7665  0.228411074766
 C2 0.167394 0.16985 0.72701  -0.0613505919003
 C3 0.105069 0.204728 0.76984  -0.134567258567
 C3 0.106801 0.210801 0.84941  -0.134567258567
 C5 0.360041 0.076198 0.75965  -0.0109189252336
 C1 0.39174 0.172434 0.17525  0.729191074766
 C2 0.478243 0.169783 0.17380  -0.0613505919003
 C3 0.522543 0.120608 0.12488  -0.134567258567
 C4 0.603559 0.118688 0.12282  0.228411074766
 C2 0.641361 0.166134 0.17008  -0.0613505919003
 C3 0.59585 0.214976 0.21795  -0.134567258567
 C3 0.515147 0.217079 0.22059  -0.134567258567
 C5 0.615281 0.027735 0.02399  -0.0109189252336
 C1 0.973747 0.17467 0.18613  0.729191074766
 C2 0.88863 0.169578 0.1803  -0.0613505919003
 C3 0.847074 0.232275 0.14323  -0.134567258567
 C4 0.767067 0.230659 0.13823  0.228411074766
 C2 0.727342 0.165413 0.17021  -0.0613505919003
 C3 0.770339 0.102741 0.20531  -0.134567258567
 C3 0.850268 0.104204 0.2111  -0.134567258567
 C5 0.760617 0.358592 0.07512  -0.0109189252336
 C1 0.175332 0.391058 0.17236  0.729191074766
 C2 0.172831 0.47759 0.17085  -0.0613505919003
 C3 0.124751 0.522484 0.12057  -0.134567258567
 C4 0.121911 0.603545 0.11953  0.228411074766
 C2 0.167675 0.640814 0.16890  -0.0613505919003
 C3 0.21455 0.594645 0.2190  -0.134567258567
 C3 0.217878 0.513919 0.22033  -0.134567258567
 C5 0.024315 0.615746 0.02660  -0.0109189252336
 C1 0.186648 0.972986 0.17791  0.729191074766
 C2 0.17959 0.887974 0.1729  -0.0613505919003
 C3 0.143258 0.845552 0.23575  -0.134567258567
 C4 0.137522 0.765554 0.23398  0.228411074766
 C2 0.167862 0.726791 0.16850  -0.0613505919003
 C3 0.201891 0.770743 0.10568  -0.134567258567
 C3 0.208578 0.850568 0.10732  -0.134567258567
 C5 0.075854 0.757394 0.36167  -0.0109189252336
 O1 0.780346 0.780703 0.64501  -0.623343925234
 O1 0.873113 0.869814 0.63703  -0.623343925234
 O2 0.927203 0.923768 0.3468  -0.270283925234
 O1 0.764271 0.848402 0.99638  -0.623343925234
 O1 0.877062 0.773231 0.99272  -0.623343925234
 O2 0.7091 0.897028 0.27781  -0.270283925234
 O1 0.644876 0.782261 0.77813  -0.623343925234
 O1 0.638985 0.870864 0.8698  -0.623343925234
 O2 0.348949 0.927089 0.92364  -0.270283925234
 O1 0.995417 0.766338 0.84951  -0.623343925234
 O1 0.99044 0.879505 0.77343  -0.623343925234
 O2 0.277395 0.71048 0.89694  -0.270283925234
 O1 0.779872 0.64588 0.78004  -0.623343925234
 O1 0.867262 0.639423 0.87372  -0.623343925234
 O2 0.923992 0.348563 0.92720  -0.270283925234
 O1 0.846814 0.996448 0.76282  -0.623343925234
 O1 0.773716 0.99111 0.87688  -0.623343925234
 O2 0.896859 0.279833 0.70694  -0.270283925234
 O3 0.81841 0.818367 0.81806  -1.26018392523
 O1 0.219678 0.219283 0.35497  -0.623343925234
 O1 0.126868 0.130215 0.36297  -0.623343925234
 O2 0.07278 0.076255 0.65316  -0.270283925234
 O1 0.235766 0.151703 0.00362  -0.623343925234
 O1 0.122921 0.226783 0.0072  -0.623343925234
 O2 0.29091 0.10299 0.72219  -0.270283925234
 O1 0.355109 0.218154 0.22143  -0.623343925234
 O1 0.361026 0.129053 0.13017  -0.623343925234
 O2 0.651063 0.072938 0.07638  -0.270283925234
 O1 0.004601 0.233712 0.1505  -0.623343925234
 O1 0.009533 0.120532 0.22657  -0.623343925234
 O2 0.722649 0.289705 0.10307  -0.270283925234
 O1 0.220084 0.354157 0.21998  -0.623343925234
 O1 0.132729 0.360608 0.12627  -0.623343925234
 O2 0.076001 0.651472 0.07280  -0.270283925234
 O1 0.153164 0.003578 0.23718  -0.623343925234
 O1 0.22625 0.008921 0.12311  -0.623343925234
 O2 0.10312 0.720192 0.29307  -0.270283925234
 O3 0.181581 0.181644 0.18194  -1.26018392523
