#======================================================================

# CRYSTAL DATA

#----------------------------------------------------------------------

data_VESTA_phase_1


_pd_phase_name                         MOF
_cell_length_a                         10.41200
_cell_length_b                         18.78200
_cell_length_c                         27.66900
_cell_angle_alpha                      90.00200
_cell_angle_beta                       89.09500
_cell_angle_gamma                      89.99400
_symmetry_space_group_name_H-M         "P 1"
_symmetry_Int_Tables_number            1

loop_
_symmetry_equiv_pos_as_xyz
   "x, y, z"

loop_
   _atom_site_label
   _atom_site_fract_x
   _atom_site_fract_y
   _atom_site_fract_z
 _atom_site_charge
 La1 0.423543 0.897158 0.52308  2.24584653061
 La1 0.923542 0.897158 0.52308  2.24584653061
 La1 0.076397 0.397189 0.97708  2.24584653061
 La1 0.576384 0.397178 0.97708  2.24584653061
 La1 0.076372 0.102804 0.47703  2.24584653061
 La1 0.57636 0.102806 0.47703  2.24584653061
 La1 0.423523 0.602831 0.02305  2.24584653061
 La1 0.923523 0.602841 0.02305  2.24584653061
 H1 0.356611 0.675389 0.51664  0.0943906972789
 H1 0.856629 0.675396 0.5166  0.0943906972789
 H1 0.241678 0.516598 0.41374  0.0943906972789
 H1 0.741675 0.516608 0.41372  0.0943906972789
 H1 0.067169 0.597575 0.38564  0.0943906972789
 H1 0.567151 0.597582 0.38563  0.0943906972789
 H1 0.03647 0.715828 0.42401  0.0943906972789
 H1 0.536449 0.715831 0.42401  0.0943906972789
 H1 0.995794 0.829486 0.66444  0.0943906972789
 H1 0.495774 0.829493 0.66443  0.0943906972789
 H1 0.123039 0.890266 0.80602  0.0943906972789
 H1 0.623044 0.89025 0.80601  0.0943906972789
 H1 0.294691 0.965241 0.76843  0.0943906972789
 H1 0.794712 0.965215 0.76842  0.0943906972789
 H1 0.321991 0.967701 0.6786  0.0943906972789
 H1 0.822007 0.967679 0.67861  0.0943906972789
 H1 0.299422 0.667084 0.88956  0.0943906972789
 H1 0.799425 0.667081 0.88956  0.0943906972789
 H1 0.08517 0.655673 0.75  0.0943906972789
 H1 0.58517 0.655687 0.75800  0.0943906972789
 H1 0.437322 0.566703 0.79638  0.0943906972789
 H1 0.93731 0.566694 0.79637  0.0943906972789
 H1 0.471409 0.528723 0.88154  0.0943906972789
 H1 0.971398 0.528723 0.88154  0.0943906972789
 H1 0.143209 0.175435 0.98332  0.0943906972789
 H1 0.643249 0.17542 0.98335  0.0943906972789
 H1 0.257869 0.016573 0.0862  0.0943906972789
 H1 0.75795 0.016614 0.08629  0.0943906972789
 H1 0.432447 0.097456 0.11436  0.0943906972789
 H1 0.932498 0.097531 0.11441  0.0943906972789
 H1 0.463312 0.215707 0.07600  0.0943906972789
 H1 0.963334 0.215764 0.07603  0.0943906972789
 H1 0.504022 0.32953 0.83566  0.0943906972789
 H1 0.0 0.329524 0.83566  0.0943906972789
 H1 0.376565 0.390384 0.69412  0.0943906972789
 H1 0.876573 0.390376 0.69412  0.0943906972789
 H1 0.204908 0.465321 0.7317  0.0943906972789
 H1 0.704914 0.465314 0.73177  0.0943906972789
 H1 0.177731 0.467737 0.82159  0.0943906972789
 H1 0.677731 0.467731 0.82159  0.0943906972789
 H1 0.20034 0.167132 0.61052  0.0943906972789
 H1 0.70034 0.167142 0.61052  0.0943906972789
 H1 0.414525 0.155761 0.74210  0.0943906972789
 H1 0.914513 0.155775 0.74210  0.0943906972789
 H1 0.062411 0.066761 0.70375  0.0943906972789
 H1 0.562416 0.066756 0.70375  0.0943906972789
 H1 0.028358 0.028757 0.6185  0.0943906972789
 H1 0.528361 0.028757 0.61858  0.0943906972789
 H1 0.143206 0.324563 0.4833  0.0943906972789
 H1 0.643191 0.32456 0.48336  0.0943906972789
 H1 0.257897 0.483377 0.58627  0.0943906972789
 H1 0.757908 0.483371 0.58628  0.0943906972789
 H1 0.432443 0.402446 0.61440  0.0943906972789
 H1 0.932461 0.40244 0.61440  0.0943906972789
 H1 0.4633 0.284208 0.57602  0.0943906972789
 H1 0.963315 0.284204 0.57601  0.0943906972789
 H1 0.504004 0.170458 0.33562  0.0943906972789
 H1 0.0 0.17046 0.33563  0.0943906972789
 H1 0.376673 0.109628 0.19406  0.0943906972789
 H1 0.876669 0.109632 0.19407  0.0943906972789
 H1 0.205037 0.034673 0.23169  0.0943906972789
 H1 0.705029 0.034679 0.23169  0.0943906972789
 H1 0.17779 0.032239 0.32150  0.0943906972789
 H1 0.677788 0.032241 0.3215  0.0943906972789
 H1 0.200406 0.332869 0.11054  0.0943906972789
 H1 0.700415 0.332864 0.11053  0.0943906972789
 H1 0.414548 0.344209 0.24213  0.0943906972789
 H1 0.914548 0.344204 0.24213  0.0943906972789
 H1 0.062444 0.433211 0.20379  0.0943906972789
 H1 0.562443 0.433206 0.20379  0.0943906972789
 H1 0.028394 0.471232 0.11863  0.0943906972789
 H1 0.528394 0.471221 0.11863  0.0943906972789
 H1 0.356639 0.824588 0.01665  0.0943906972789
 H1 0.8566 0.824601 0.01661  0.0943906972789
 H1 0.241736 0.98342 0.91376  0.0943906972789
 H1 0.741661 0.983373 0.91369  0.0943906972789
 H1 0.067199 0.902484 0.88566  0.0943906972789
 H1 0.567144 0.902408 0.88561  0.0943906972789
 H1 0.036473 0.784229 0.92402  0.0943906972789
 H1 0.536448 0.784172 0.92399  0.0943906972789
 H1 0.995787 0.670498 0.16441  0.0943906972789
 H1 0.495779 0.670506 0.16440  0.0943906972789
 H1 0.123134 0.60969 0.30597  0.0943906972789
 H1 0.623135 0.609708 0.30597  0.0943906972789
 H1 0.294815 0.534737 0.26835  0.0943906972789
 H1 0.794815 0.534755 0.26835  0.0943906972789
 H1 0.322068 0.532299 0.17854  0.0943906972789
 H1 0.822066 0.532312 0.17854  0.0943906972789
 H1 0.29947 0.832893 0.38956  0.0943906972789
 H1 0.799476 0.832893 0.38957  0.0943906972789
 H1 0.08517 0.844324 0.25801  0.0943906972789
 H1 0.585179 0.844311 0.25802  0.0943906972789
 H1 0.43733 0.933301 0.29640  0.0943906972789
 H1 0.937313 0.933313 0.29640  0.0943906972789
 H1 0.471428 0.971268 0.38157  0.0943906972789
 H1 0.971417 0.971275 0.3815  0.0943906972789
 C1 0.178249 0.774768 0.49542  0.795989863946
 C1 0.678252 0.774774 0.49541  0.795989863946
 C2 0.195028 0.702993 0.47262  -0.131156802721
 C2 0.695034 0.703001 0.47261  -0.131156802721
 C3 0.293274 0.658 0.48808  -0.0388013860544
 C3 0.79327 0.658003 0.48808  -0.0388013860544
 C2 0.30973 0.590413 0.46734  -0.131156802721
 C2 0.809728 0.59042 0.46733  -0.131156802721
 C3 0.22848 0.569099 0.42977  -0.0388013860544
 C3 0.728452 0.5691 0.42977  -0.0388013860544
 C3 0.131479 0.614344 0.41417  -0.0388013860544
 C3 0.63148 0.614357 0.41416  -0.0388013860544
 C3 0.113473 0.680885 0.43566  -0.0388013860544
 C3 0.613463 0.680892 0.43565  -0.0388013860544
 C4 0.410682 0.542322 0.48478  0.335228197279
 C4 0.910674 0.542327 0.48477  0.335228197279
 C1 0.175131 0.902975 0.61208  0.795989863946
 C1 0.675119 0.902977 0.61207  0.795989863946
 C2 0.160436 0.899071 0.66611  -0.131156802721
 C2 0.660434 0.899065 0.66610  -0.131156802721
 C3 0.062155 0.858348 0.68724  -0.0388013860544
 C3 0.562154 0.858339 0.68723  -0.0388013860544
 C2 0.049596 0.85406 0.73776  -0.131156802721
 C2 0.549576 0.85406 0.73776  -0.131156802721
 C3 0.133445 0.893466 0.766  -0.0388013860544
 C3 0.633454 0.893446 0.76689  -0.0388013860544
 C3 0.229663 0.935069 0.74569  -0.0388013860544
 C3 0.729673 0.935049 0.74569  -0.0388013860544
 C3 0.245001 0.936934 0.69551  -0.0388013860544
 C3 0.745011 0.936918 0.69551  -0.0388013860544
 C4 0.449749 0.808854 0.76017  0.335228197279
 C4 0.949759 0.808853 0.76018  0.335228197279
 C4 0.285001 0.722397 0.79979  0.335228197279
 C4 0.785012 0.722394 0.79980  0.335228197279
 C1 0.16797 0.566659 0.93974  0.795989863946
 C1 0.667956 0.566661 0.93974  0.795989863946
 C2 0.138844 0.594465 0.89046  -0.131156802721
 C2 0.63884 0.594465 0.89047  -0.131156802721
 C3 0.21948 0.645697 0.86930  -0.0388013860544
 C3 0.719496 0.645687 0.86930  -0.0388013860544
 C2 0.199166 0.66884 0.82188  -0.131156802721
 C2 0.699161 0.668847 0.82189  -0.131156802721
 C3 0.098262 0.638973 0.7953  -0.0388013860544
 C3 0.598276 0.638972 0.79531  -0.0388013860544
 C3 0.016282 0.589152 0.81681  -0.0388013860544
 C3 0.516273 0.589164 0.81681  -0.0388013860544
 C3 0.034954 0.567538 0.8644  -0.0388013860544
 C3 0.534955 0.567538 0.86447  -0.0388013860544
 C1 0.321653 0.274742 0.00460  0.795989863946
 C1 0.821653 0.274754 0.0046  0.795989863946
 C2 0.304783 0.202956 0.02737  -0.131156802721
 C2 0.804798 0.202981 0.02740  -0.131156802721
 C3 0.206504 0.158007 0.0118  -0.0388013860544
 C3 0.706551 0.15801 0.01192  -0.0388013860544
 C2 0.18996 0.090424 0.03262  -0.131156802721
 C2 0.690029 0.090436 0.03267  -0.131156802721
 C3 0.271168 0.069063 0.07019  -0.0388013860544
 C3 0.771241 0.069096 0.0702  -0.0388013860544
 C3 0.368176 0.114269 0.08582  -0.0388013860544
 C3 0.868214 0.114327 0.08587  -0.0388013860544
 C3 0.386281 0.180803 0.06434  -0.0388013860544
 C3 0.886304 0.180851 0.06438  -0.0388013860544
 C4 0.088966 0.042368 0.01518  0.335228197279
 C4 0.589076 0.042361 0.01522  0.335228197279
 C1 0.324887 0.403038 0.88809  0.795989863946
 C1 0.824883 0.403029 0.888  0.795989863946
 C2 0.339346 0.399113 0.83405  -0.131156802721
 C2 0.839343 0.399105 0.83405  -0.131156802721
 C3 0.437601 0.358396 0.81288  -0.0388013860544
 C3 0.937602 0.358389 0.81289  -0.0388013860544
 C2 0.450103 0.354134 0.7623  -0.131156802721
 C2 0.95011 0.354131 0.76236  -0.131156802721
 C3 0.366201 0.393554 0.73325  -0.0388013860544
 C3 0.866209 0.393548 0.73325  -0.0388013860544
 C3 0.269979 0.435133 0.75449  -0.0388013860544
 C3 0.769982 0.435124 0.75449  -0.0388013860544
 C3 0.254713 0.436976 0.80467  -0.0388013860544
 C3 0.754712 0.436969 0.80467  -0.0388013860544
 C4 0.049944 0.308929 0.73992  0.335228197279
 C4 0.549926 0.308933 0.73992  0.335228197279
 C4 0.214704 0.222471 0.70029  0.335228197279
 C4 0.714695 0.222483 0.70029  0.335228197279
 C1 0.33188 0.066671 0.56039  0.795989863946
 C1 0.831882 0.066678 0.56039  0.795989863946
 C2 0.360933 0.094507 0.6096  -0.131156802721
 C2 0.860927 0.094514 0.60965  -0.131156802721
 C3 0.280271 0.145754 0.63079  -0.0388013860544
 C3 0.780258 0.145758 0.63079  -0.0388013860544
 C2 0.30057 0.168916 0.67821  -0.131156802721
 C2 0.800564 0.16893 0.67820  -0.131156802721
 C3 0.401461 0.139048 0.70480  -0.0388013860544
 C3 0.901439 0.139053 0.70479  -0.0388013860544
 C3 0.483469 0.089215 0.68331  -0.0388013860544
 C3 0.983458 0.089225 0.68331  -0.0388013860544
 C3 0.464817 0.067581 0.63566  -0.0388013860544
 C3 0.964804 0.067584 0.63566  -0.0388013860544
 C1 0.321647 0.225226 0.504  0.795989863946
 C1 0.821635 0.225222 0.50460  0.795989863946
 C2 0.304778 0.297 0.52739  -0.131156802721
 C2 0.804767 0.296993 0.527  -0.131156802721
 C3 0.206518 0.341972 0.51190  -0.0388013860544
 C3 0.70652 0.341972 0.51191  -0.0388013860544
 C2 0.189978 0.40955 0.53265  -0.131156802721
 C2 0.689982 0.40955 0.53266  -0.131156802721
 C3 0.271185 0.430888 0.57023  -0.0388013860544
 C3 0.771209 0.430889 0.57023  -0.0388013860544
 C3 0.368179 0.385659 0.58585  -0.0388013860544
 C3 0.868183 0.385651 0.58586  -0.0388013860544
 C3 0.386274 0.319128 0.56436  -0.0388013860544
 C3 0.886279 0.319123 0.56437  -0.0388013860544
 C4 0.089002 0.457624 0.51521  0.335228197279
 C4 0.589003 0.457624 0.5152  0.335228197279
 C1 0.324835 0.096951 0.38803  0.795989863946
 C1 0.824833 0.096951 0.38804  0.795989863946
 C2 0.339354 0.100873 0.33399  -0.131156802721
 C2 0.839349 0.100876 0.33400  -0.131156802721
 C3 0.437619 0.141586 0.31284  -0.0388013860544
 C3 0.937614 0.14159 0.31284  -0.0388013860544
 C2 0.450149 0.145858 0.26231  -0.131156802721
 C2 0.95015 0.145858 0.26232  -0.131156802721
 C3 0.36629 0.106443 0.23319  -0.0388013860544
 C3 0.866292 0.106443 0.23320  -0.0388013860544
 C3 0.270071 0.064861 0.25441  -0.0388013860544
 C3 0.770063 0.064867 0.25442  -0.0388013860544
 C3 0.254768 0.063008 0.30459  -0.0388013860544
 C3 0.754764 0.063011 0.30460  -0.0388013860544
 C4 0.049982 0.191062 0.23990  0.335228197279
 C4 0.549975 0.191058 0.23989  0.335228197279
 C4 0.214751 0.277515 0.20030  0.335228197279
 C4 0.714755 0.277509 0.20029  0.335228197279
 C1 0.331901 0.433333 0.06044  0.795989863946
 C1 0.831907 0.433333 0.06043  0.795989863946
 C2 0.360979 0.405484 0.10969  -0.131156802721
 C2 0.860978 0.405485 0.10969  -0.131156802721
 C3 0.280334 0.354232 0.13082  -0.0388013860544
 C3 0.780329 0.354235 0.13081  -0.0388013860544
 C2 0.300623 0.331067 0.17823  -0.131156802721
 C2 0.800626 0.331061 0.17822  -0.131156802721
 C3 0.401508 0.36092 0.20482  -0.0388013860544
 C3 0.901491 0.360926 0.20482  -0.0388013860544
 C3 0.483499 0.41076 0.18335  -0.0388013860544
 C3 0.983494 0.410759 0.18334  -0.0388013860544
 C3 0.464857 0.432398 0.135  -0.0388013860544
 C3 0.964847 0.432406 0.13569  -0.0388013860544
 C1 0.178251 0.725242 0.99541  0.795989863946
 C1 0.678241 0.725229 0.99539  0.795989863946
 C2 0.195043 0.797024 0.97263  -0.131156802721
 C2 0.695026 0.796999 0.97259  -0.131156802721
 C3 0.293313 0.841993 0.98809  -0.0388013860544
 C3 0.793266 0.84199 0.98805  -0.0388013860544
 C2 0.30977 0.909582 0.96735  -0.131156802721
 C2 0.809714 0.909569 0.96730  -0.131156802721
 C3 0.228517 0.930922 0.92979  -0.0388013860544
 C3 0.728442 0.930885 0.92974  -0.0388013860544
 C3 0.131512 0.885694 0.91419  -0.0388013860544
 C3 0.631477 0.885632 0.91413  -0.0388013860544
 C3 0.113487 0.819154 0.93567  -0.0388013860544
 C3 0.613459 0.819106 0.93563  -0.0388013860544
 C4 0.410748 0.957653 0.98479  0.335228197279
 C4 0.910646 0.957661 0.9847  0.335228197279
 C1 0.175061 0.597012 0.11202  0.795989863946
 C1 0.675059 0.597024 0.11202  0.795989863946
 C2 0.160462 0.60092 0.16605  -0.131156802721
 C2 0.660464 0.600933 0.16605  -0.131156802721
 C3 0.062188 0.641646 0.18720  -0.0388013860544
 C3 0.562173 0.641649 0.18720  -0.0388013860544
 C2 0.049634 0.645914 0.23773  -0.131156802721
 C2 0.54963 0.645926 0.23772  -0.131156802721
 C3 0.133535 0.606512 0.26684  -0.0388013860544
 C3 0.63352 0.60652 0.26684  -0.0388013860544
 C3 0.229755 0.564911 0.24562  -0.0388013860544
 C3 0.72976 0.564932 0.2456  -0.0388013860544
 C3 0.24507 0.563059 0.1954  -0.0388013860544
 C3 0.745069 0.563073 0.19545  -0.0388013860544
 C4 0.449789 0.691126 0.26015  0.335228197279
 C4 0.94979 0.691121 0.26015  0.335228197279
 C4 0.285035 0.777588 0.29979  0.335228197279
 C4 0.785046 0.777584 0.29979  0.335228197279
 C1 0.167993 0.933315 0.43976  0.795989863946
 C1 0.667985 0.933312 0.4397  0.795989863946
 C2 0.138877 0.905521 0.39048  -0.131156802721
 C2 0.638875 0.905517 0.39049  -0.131156802721
 C3 0.219521 0.854288 0.36931  -0.0388013860544
 C3 0.719532 0.85429 0.36931  -0.0388013860544
 C2 0.199191 0.831146 0.32189  -0.131156802721
 C2 0.699203 0.83114 0.32190  -0.131156802721
 C3 0.098276 0.861024 0.29532  -0.0388013860544
 C3 0.598292 0.861018 0.29532  -0.0388013860544
 C3 0.016296 0.910849 0.31683  -0.0388013860544
 C3 0.516294 0.910835 0.3168  -0.0388013860544
 C3 0.034979 0.932458 0.36449  -0.0388013860544
 C3 0.534978 0.932451 0.36449  -0.0388013860544
 N1 0.43045 0.480373 0.46062  -0.182413469388
 N1 0.930371 0.480353 0.46063  -0.182413469388
 N1 0.478313 0.562784 0.52390  -0.182413469388
 N1 0.978309 0.562788 0.52389  -0.182413469388
 N1 0.371056 0.771874 0.73066  -0.182413469388
 N1 0.871093 0.771855 0.73066  -0.182413469388
 N1 0.286643 0.72802 0.7509  -0.182413469388
 N1 0.786652 0.72802 0.75092  -0.182413469388
 N1 0.353912 0.76474 0.82937  -0.182413469388
 N1 0.853939 0.764729 0.82938  -0.182413469388
 N1 0.437775 0.809112 0.80903  -0.182413469388
 N1 0.937796 0.809103 0.80904  -0.182413469388
 N1 0.069227 0.980397 0.03933  -0.182413469388
 N1 0.569386 0.980368 0.0393  -0.182413469388
 N1 0.02128 0.062852 0.97607  -0.182413469388
 N1 0.521462 0.062811 0.97609  -0.182413469388
 N1 0.128687 0.271963 0.76943  -0.182413469388
 N1 0.628668 0.271967 0.76943  -0.182413469388
 N1 0.21313 0.228128 0.74917  -0.182413469388
 N1 0.713098 0.228124 0.74916  -0.182413469388
 N1 0.145719 0.264789 0.67072  -0.182413469388
 N1 0.645693 0.264791 0.67071  -0.182413469388
 N1 0.061865 0.309172 0.6910  -0.182413469388
 N1 0.561831 0.309171 0.69106  -0.182413469388
 N1 0.069276 0.51959 0.5393  -0.182413469388
 N1 0.569335 0.519611 0.53934  -0.182413469388
 N1 0.021329 0.437148 0.47610  -0.182413469388
 N1 0.521334 0.437147 0.47611  -0.182413469388
 N1 0.128707 0.22801 0.26942  -0.182413469388
 N1 0.628713 0.227998 0.26941  -0.182413469388
 N1 0.213153 0.271847 0.24917  -0.182413469388
 N1 0.713098 0.271874 0.2491  -0.182413469388
 N1 0.145819 0.235196 0.17071  -0.182413469388
 N1 0.645848 0.235178 0.17070  -0.182413469388
 N1 0.061948 0.19082 0.19104  -0.182413469388
 N1 0.561904 0.190841 0.19103  -0.182413469388
 N1 0.430464 0.019634 0.96064  -0.182413469388
 N1 0.930296 0.019662 0.96062  -0.182413469388
 N1 0.478487 0.937156 0.02388  -0.182413469388
 N1 0.978285 0.937197 0.02387  -0.182413469388
 N1 0.371054 0.728103 0.2306  -0.182413469388
 N1 0.871094 0.72812 0.23065  -0.182413469388
 N1 0.286632 0.771953 0.25091  -0.182413469388
 N1 0.786656 0.771961 0.25092  -0.182413469388
 N1 0.353951 0.735227 0.32936  -0.182413469388
 N1 0.854005 0.735246 0.32936  -0.182413469388
 N1 0.437836 0.690864 0.30901  -0.182413469388
 N1 0.937862 0.690868 0.30901  -0.182413469388
 O1 0.272544 0.800187 0.51878  -0.718379469388
 O1 0.772539 0.800188 0.51878  -0.718379469388
 O1 0.071473 0.806878 0.48975  -0.718379469388
 O1 0.571465 0.806877 0.4897  -0.718379469388
 O1 0.284475 0.919911 0.59456  -0.718379469388
 O1 0.78446 0.919913 0.59455  -0.718379469388
 O1 0.076077 0.89034 0.58708  -0.718379469388
 O1 0.576064 0.890337 0.58707  -0.718379469388
 O1 0.279631 0.574977 0.9556  -0.718379469388
 O1 0.77962 0.574972 0.95561  -0.718379469388
 O2 0.077384 0.533897 0.96378  -0.833253469388
 O2 0.577377 0.533885 0.96378  -0.833253469388
 O1 0.227417 0.300206 0.98122  -0.718379469388
 O1 0.727418 0.300201 0.98122  -0.718379469388
 O1 0.428445 0.306815 0.01028  -0.718379469388
 O1 0.92845 0.306827 0.01028  -0.718379469388
 O1 0.215687 0.420066 0.90571  -0.718379469388
 O1 0.715675 0.42004 0.9057  -0.718379469388
 O1 0.424075 0.390347 0.91301  -0.718379469388
 O1 0.924076 0.390349 0.91301  -0.718379469388
 O1 0.220238 0.074988 0.54450  -0.718379469388
 O1 0.720241 0.074988 0.54449  -0.718379469388
 O2 0.422543 0.033882 0.53641  -0.833253469388
 O2 0.922542 0.033879 0.53641  -0.833253469388
 O1 0.227401 0.199779 0.4812  -0.718379469388
 O1 0.727397 0.199779 0.48121  -0.718379469388
 O1 0.428455 0.193149 0.51026  -0.718379469388
 O1 0.928451 0.19315 0.51026  -0.718379469388
 O1 0.215613 0.079934 0.40563  -0.718379469388
 O1 0.715616 0.079928 0.40564  -0.718379469388
 O1 0.423989 0.109633 0.41297  -0.718379469388
 O1 0.923988 0.109634 0.41297  -0.718379469388
 O1 0.220252 0.425017 0.04455  -0.718379469388
 O1 0.72026 0.425019 0.04454  -0.718379469388
 O2 0.422552 0.466115 0.03645  -0.833253469388
 O2 0.922552 0.466127 0.03645  -0.833253469388
 O1 0.272529 0.699806 0.01878  -0.718379469388
 O1 0.772515 0.699809 0.01878  -0.718379469388
 O1 0.071484 0.693142 0.98973  -0.718379469388
 O1 0.571468 0.693129 0.9897  -0.718379469388
 O1 0.284357 0.580066 0.0944  -0.718379469388
 O1 0.784355 0.58008 0.09445  -0.718379469388
 O1 0.075946 0.609664 0.08706  -0.718379469388
 O1 0.575934 0.60966 0.08706  -0.718379469388
 O1 0.279654 0.924992 0.45563  -0.718379469388
 O1 0.779647 0.924993 0.45564  -0.718379469388
 O2 0.077399 0.966083 0.46381  -0.833253469388
 O2 0.577391 0.966084 0.46381  -0.833253469388
