#======================================================================

# CRYSTAL DATA

#----------------------------------------------------------------------

data_VESTA_phase_1


_pd_phase_name                         MOF
_cell_length_a                         13.08300
_cell_length_b                         18.27000
_cell_length_c                         18.30700
_cell_angle_alpha                      89.72300
_cell_angle_beta                       89.88100
_cell_angle_gamma                      90.08000
_symmetry_space_group_name_H-M         "P 1"
_symmetry_Int_Tables_number            1

loop_
_symmetry_equiv_pos_as_xyz
   "x, y, z"

loop_
   _atom_site_label
   _atom_site_fract_x
   _atom_site_fract_y
   _atom_site_fract_z
 _atom_site_charge
 Ba1 0.164982 0.152693 0.60788  1.62603895349
 Ba1 0.662882 0.846924 0.3909  1.62603895349
 Ba1 0.41593 0.892902 0.65109  1.62603895349
 Ba1 0.915112 0.107084 0.34878  1.62603895349
 Ba1 0.089153 0.348105 0.10857  1.62603895349
 Ba1 0.587006 0.652914 0.89270  1.62603895349
 Ba1 0.837336 0.607964 0.15146  1.62603895349
 Ba1 0.339989 0.391411 0.84770  1.62603895349
 Cd1 0.2524 0.347524 0.65294  1.05892395349
 Cd1 0.750171 0.652748 0.34603  1.05892395349
 Cd1 0.501118 0.847221 0.84605  1.05892395349
 Cd1 0.000748 0.15408 0.15392  1.05892395349
 H1 0.153283 0.236296 0.41351  0.0985889534884
 H1 0.302418 0.29701 0.21217  0.0985889534884
 H1 0.424862 0.373704 0.28099  0.0985889534884
 H1 0.409631 0.383177 0.41732  0.0985889534884
 H1 0.651371 0.763292 0.58613  0.0985889534884
 H1 0.800882 0.702576 0.78681  0.0985889534884
 H1 0.923152 0.626205 0.71737  0.0985889534884
 H1 0.907787 0.617011 0.58107  0.0985889534884
 H1 0.404778 0.087884 0.73409  0.0985889534884
 H1 0.554042 0.288885 0.79445  0.0985889534884
 H1 0.676297 0.219055 0.87085  0.0985889534884
 H1 0.660701 0.082381 0.88045  0.0985889534884
 H1 0.90241 0.912438 0.26450  0.0985889534884
 H1 0.05187 0.711986 0.20313  0.0985889534884
 H1 0.174402 0.782391 0.12691  0.0985889534884
 H1 0.158819 0.91906 0.11787  0.0985889534884
 H1 0.101187 0.265094 0.91259  0.0985889534884
 H1 0.951798 0.203444 0.71262  0.0985889534884
 H1 0.82842 0.127998 0.78307  0.0985889534884
 H1 0.843217 0.119753 0.91956  0.0985889534884
 H1 0.598909 0.736716 0.08  0.0985889534884
 H1 0.450017 0.796426 0.28704  0.0985889534884
 H1 0.327112 0.872796 0.21781  0.0985889534884
 H1 0.341814 0.882453 0.08135  0.0985889534884
 H1 0.84919 0.412336 0.23525  0.0985889534884
 H1 0.69972 0.210999 0.29670  0.0985889534884
 H1 0.576989 0.280429 0.37280  0.0985889534884
 H1 0.592663 0.41704 0.38182  0.0985889534884
 H1 0.349417 0.588342 0.76517  0.0985889534884
 H1 0.198939 0.789002 0.70425  0.0985889534884
 H1 0.07617 0.718886 0.62895  0.0985889534884
 H1 0.092546 0.582383 0.61978  0.0985889534884
 C1 0.281516 0.309691 0.42361  -0.183571046512
 C2 0.212762 0.266392 0.38455  -0.0317135465116
 C1 0.218283 0.262643 0.30835  -0.183571046512
 C2 0.295495 0.301318 0.2712  -0.0317135465116
 C2 0.364866 0.34415 0.31017  -0.0317135465116
 C2 0.357481 0.349043 0.3860  -0.0317135465116
 C3 0.271999 0.315008 0.50478  0.725493953488
 C3 0.140228 0.21841 0.26836  0.725493953488
 C1 0.779527 0.690152 0.57542  -0.183571046512
 C2 0.710856 0.733244 0.61483  -0.0317135465116
 C1 0.716593 0.736937 0.69102  -0.183571046512
 C2 0.793819 0.69831 0.72774  -0.0317135465116
 C2 0.863116 0.655697 0.68847  -0.0317135465116
 C2 0.855606 0.65092 0.61265  -0.0317135465116
 C3 0.769851 0.685035 0.49425  0.725493953488
 C3 0.639044 0.781333 0.73138  0.725493953488
 C1 0.532886 0.076917 0.80719  -0.183571046512
 C2 0.464247 0.116535 0.76404  -0.0317135465116
 C1 0.469875 0.19294 0.76035  -0.183571046512
 C2 0.547128 0.229625 0.7987  -0.0317135465116
 C2 0.616349 0.190168 0.84143  -0.0317135465116
 C2 0.608766 0.114148 0.84638  -0.0317135465116
 C3 0.523175 0.995546 0.81279  0.725493953488
 C3 0.391833 0.2338 0.71668  0.725493953488
 C1 0.030675 0.923926 0.19127  -0.183571046512
 C2 0.961937 0.88399 0.2343  -0.0317135465116
 C1 0.967581 0.807601 0.23776  -0.183571046512
 C2 0.044937 0.771242 0.19906  -0.0317135465116
 C2 0.114317 0.811027 0.15650  -0.0317135465116
 C2 0.106717 0.887048 0.15183  -0.0317135465116
 C3 0.021079 0.005302 0.18633  0.725493953488
 C3 0.889621 0.76638 0.28154  0.725493953488
 C1 0.972138 0.192547 0.92423  -0.183571046512
 C2 0.041457 0.235097 0.88425  -0.0317135465116
 C1 0.036051 0.238197 0.80798  -0.183571046512
 C2 0.95851 0.199612 0.77178  -0.0317135465116
 C2 0.888624 0.157514 0.81160  -0.0317135465116
 C2 0.895815 0.153288 0.88750  -0.0317135465116
 C3 0.981438 0.187731 0.00549  0.725493953488
 C3 0.114292 0.281663 0.76674  0.725493953488
 C1 0.470213 0.809512 0.07549  -0.183571046512
 C2 0.539347 0.766486 0.11479  -0.0317135465116
 C1 0.534019 0.762564 0.19102  -0.183571046512
 C2 0.456743 0.800877 0.22790  -0.0317135465116
 C2 0.387086 0.843489 0.18877  -0.0317135465116
 C2 0.394221 0.848514 0.1128  -0.0317135465116
 C3 0.479435 0.814952 0.99425  0.725493953488
 C3 0.612165 0.718533 0.23141  0.725493953488
 C1 0.720813 0.422847 0.30846  -0.183571046512
 C2 0.789629 0.383495 0.26539  -0.0317135465116
 C1 0.78395 0.307122 0.26205  -0.183571046512
 C2 0.706543 0.270231 0.30072  -0.0317135465116
 C2 0.637128 0.309452 0.34324  -0.0317135465116
 C2 0.64474 0.385433 0.34787  -0.0317135465116
 C3 0.73019 0.504178 0.31355  0.725493953488
 C3 0.861875 0.266352 0.21842  0.725493953488
 C1 0.221123 0.577196 0.69246  -0.183571046512
 C2 0.289685 0.616916 0.73526  -0.0317135465116
 C1 0.283675 0.693239 0.73865  -0.183571046512
 C2 0.206027 0.729785 0.70030  -0.0317135465116
 C2 0.136604 0.690167 0.65819  -0.0317135465116
 C2 0.144613 0.614209 0.65348  -0.0317135465116
 C3 0.231838 0.495976 0.68723  0.725493953488
 C3 0.361699 0.73394 0.78217  0.725493953488
 N1 0.942624 0.130493 0.52681  0.892213953488
 N1 0.440997 0.868667 0.47291  0.892213953488
 N1 0.193482 0.974306 0.63240  0.892213953488
 N1 0.691618 0.025665 0.36765  0.892213953488
 N1 0.312384 0.367613 0.02612  0.892213953488
 N1 0.810132 0.633489 0.97374  0.892213953488
 N1 0.059761 0.525983 0.13236  0.892213953488
 N1 0.561494 0.47427 0.86947  0.892213953488
 O1 0.024839 0.12554 0.48685  -0.667536046512
 O2 0.951304 0.143887 0.59405  -0.510516046512
 O2 0.856648 0.122124 0.49700  -0.510516046512
 O3 0.204794 0.27484 0.53728  -0.702786046512
 O4 0.328652 0.359414 0.53914  -0.577756046512
 O3 0.087547 0.171785 0.30292  -0.702786046512
 O5 0.129114 0.23118 0.19924  -0.727166046512
 O1 0.52352 0.871946 0.51261  -0.667536046512
 O2 0.449166 0.855984 0.40548  -0.510516046512
 O2 0.355409 0.877977 0.50315  -0.510516046512
 O3 0.702526 0.725171 0.46221  -0.702786046512
 O4 0.826437 0.640856 0.45951  -0.577756046512
 O3 0.586792 0.828134 0.69700  -0.702786046512
 O5 0.62789 0.768722 0.80055  -0.727166046512
 O1 0.274876 0.0 0.62802  -0.667536046512
 O2 0.203829 0.906585 0.64405  -0.510516046512
 O2 0.106811 0.0 0.62514  -0.510516046512
 O3 0.457502 0.963162 0.77182  -0.702786046512
 O4 0.577975 0.960862 0.85831  -0.577756046512
 O3 0.337617 0.199779 0.67106  -0.702786046512
 O5 0.38218 0.303152 0.72889  -0.727166046512
 O1 0.772917 0.984677 0.37190  -0.667536046512
 O2 0.70211 0.093423 0.35614  -0.510516046512
 O2 0.604855 0.99644 0.37485  -0.510516046512
 O3 0.955687 0.037233 0.22791  -0.702786046512
 O4 0.075822 0.040402 0.14082  -0.577756046512
 O3 0.835799 0.79994 0.32787  -0.702786046512
 O5 0.879679 0.697145 0.2687  -0.727166046512
 O1 0.230842 0.371987 0.98553  -0.667536046512
 O2 0.302283 0.356065 0.09378  -0.510516046512
 O2 0.398966 0.374764 0.99663  -0.510516046512
 O3 0.048742 0.227882 0.03724  -0.702786046512
 O4 0.924504 0.143613 0.04058  -0.577756046512
 O3 0.168539 0.327835 0.80016  -0.702786046512
 O5 0.124043 0.269015 0.69762  -0.727166046512
 O1 0.728499 0.62823 0.  -0.667536046512
 O2 0.800203 0.646883 0.9064  -0.510516046512
 O2 0.896593 0.625359 0.  -0.510516046512
 O3 0.546728 0.774905 0.96216  -0.702786046512
 O4 0.422838 0.859217 0.95944  -0.577756046512
 O3 0.665759 0.672575 0.19721  -0.702786046512
 O5 0.62233 0.730721 0.30058  -0.727166046512
 O1 0.978423 0.484997 0.1280  -0.667536046512
 O2 0.049466 0.593597 0.14399  -0.510516046512
 O2 0.146481 0.496889 0.12509  -0.510516046512
 O3 0.795565 0.53692 0.27212  -0.702786046512
 O4 0.675173 0.538465 0.35906  -0.577756046512
 O3 0.915747 0.300179 0.17193  -0.702786046512
 O5 0.871742 0.197038 0.23145  -0.727166046512
 O1 0.479684 0.514615 0.87447  -0.667536046512
 O2 0.551867 0.406898 0.85611  -0.510516046512
 O2 0.647812 0.503714 0.87777  -0.510516046512
 O3 0.298151 0.464054 0.72812  -0.702786046512
 O4 0.177079 0.461147 0.64199  -0.577756046512
 O3 0.414308 0.699936 0.82902  -0.702786046512
 O5 0.373019 0.803066 0.76868  -0.727166046512
