#======================================================================

# CRYSTAL DATA

#----------------------------------------------------------------------

data_VESTA_phase_1


_pd_phase_name                         MOF
_cell_length_a                         18.66500
_cell_length_b                         19.52400
_cell_length_c                         19.47600
_cell_angle_alpha                      122.21700
_cell_angle_beta                       89.95800
_cell_angle_gamma                      90.11800
_symmetry_space_group_name_H-M         "P 1"
_symmetry_Int_Tables_number            1

loop_
_symmetry_equiv_pos_as_xyz
   "x, y, z"

loop_
   _atom_site_label
   _atom_site_fract_x
   _atom_site_fract_y
   _atom_site_fract_z
 _atom_site_charge
 Zn1 0.284347 0.203859 0.13740  0.814666551724
 Zn1 0.284344 0.203857 0.63740  0.814666551724
 Zn1 0.284342 0.703849 0.13739  0.814666551724
 Zn1 0.284339 0.703849 0.63739  0.814666551724
 Zn1 0.784336 0.203859 0.13740  0.814666551724
 Zn1 0.784333 0.203857 0.63740  0.814666551724
 Zn1 0.784331 0.70385 0.13739  0.814666551724
 Zn1 0.784328 0.703849 0.63739  0.814666551724
 Zn1 0.034405 0.296092 0.36253  0.814666551724
 Zn1 0.034402 0.29609 0.86253  0.814666551724
 Zn1 0.0344 0.796082 0.36253  0.814666551724
 Zn1 0.034397 0.796082 0.86253  0.814666551724
 Zn1 0.534394 0.296092 0.36253  0.814666551724
 Zn1 0.534391 0.29609 0.86253  0.814666551724
 Zn1 0.534389 0.796083 0.36253  0.814666551724
 Zn1 0.534386 0.796082 0.86253  0.814666551724
 H1 0.126167 0.264293 0.20979  0.0970976628352
 H1 0.126164 0.26429 0.7097  0.0970976628352
 H1 0.126162 0.764283 0.20978  0.0970976628352
 H1 0.126159 0.764284 0.70978  0.0970976628352
 H1 0.626156 0.264293 0.20979  0.0970976628352
 H1 0.626153 0.264291 0.7097  0.0970976628352
 H1 0.626151 0.764284 0.20978  0.0970976628352
 H1 0.626148 0.764283 0.70978  0.0970976628352
 H1 0.219541 0.15891 0.39577  0.0970976628352
 H1 0.219538 0.158907 0.89577  0.0970976628352
 H1 0.219536 0.6589 0.39577  0.0970976628352
 H1 0.219532 0.658899 0.8957  0.0970976628352
 H1 0.71953 0.158909 0.39577  0.0970976628352
 H1 0.719527 0.158907 0.89577  0.0970976628352
 H1 0.719525 0.6589 0.39577  0.0970976628352
 H1 0.719522 0.658899 0.8957  0.0970976628352
 H1 0.125764 0.178502 0.4063  0.0970976628352
 H1 0.12576 0.178499 0.90631  0.0970976628352
 H1 0.125759 0.678492 0.40631  0.0970976628352
 H1 0.125755 0.678491 0.90631  0.0970976628352
 H1 0.625753 0.178501 0.4063  0.0970976628352
 H1 0.625749 0.1785 0.90631  0.0970976628352
 H1 0.625748 0.678492 0.40631  0.0970976628352
 H1 0.625744 0.678491 0.90631  0.0970976628352
 H2 0.302038 0.296223 0.47342  0.315618218391
 H2 0.302034 0.29622 0.97342  0.315618218391
 H2 0.302033 0.796213 0.47342  0.315618218391
 H2 0.30203 0.796212 0.97342  0.315618218391
 H2 0.802027 0.296223 0.47342  0.315618218391
 H2 0.802024 0.29622 0.97342  0.315618218391
 H2 0.802022 0.796213 0.47342  0.315618218391
 H2 0.802019 0.796211 0.97342  0.315618218391
 H1 0.287512 0.160526 0.27642  0.0970976628352
 H1 0.287509 0.160523 0.7764  0.0970976628352
 H1 0.287507 0.660516 0.27641  0.0970976628352
 H1 0.287504 0.660516 0.77641  0.0970976628352
 H1 0.787501 0.160525 0.27642  0.0970976628352
 H1 0.787498 0.160523 0.7764  0.0970976628352
 H1 0.787496 0.660516 0.27641  0.0970976628352
 H1 0.787493 0.660516 0.77641  0.0970976628352
 H1 0.297409 0.044588 0.13355  0.0970976628352
 H1 0.297406 0.044585 0.63354  0.0970976628352
 H1 0.297405 0.544579 0.13354  0.0970976628352
 H1 0.2974 0.544579 0.63355  0.0970976628352
 H1 0.797398 0.044587 0.1335  0.0970976628352
 H1 0.797394 0.044586 0.63354  0.0970976628352
 H1 0.797394 0.544579 0.13354  0.0970976628352
 H1 0.79739 0.544579 0.6335  0.0970976628352
 H1 0.3834 0.052028 0.09831  0.0970976628352
 H1 0.383396 0.052026 0.5983  0.0970976628352
 H1 0.383395 0.552018 0.09830  0.0970976628352
 H1 0.383391 0.552019 0.59831  0.0970976628352
 H1 0.883389 0.052027 0.09831  0.0970976628352
 H1 0.883385 0.052026 0.59831  0.0970976628352
 H1 0.883384 0.552019 0.0983  0.0970976628352
 H1 0.883381 0.552018 0.59831  0.0970976628352
 H1 0.144011 0.321844 0.00317  0.0970976628352
 H1 0.144008 0.321842 0.50317  0.0970976628352
 H1 0.144003 0.821833 0.50316  0.0970976628352
 H1 0.144 0.821832 0.  0.0970976628352
 H1 0.644 0.321844 0.00317  0.0970976628352
 H1 0.643997 0.321842 0.50317  0.0970976628352
 H1 0.643992 0.821833 0.50316  0.0970976628352
 H1 0.643989 0.821832 0.  0.0970976628352
 H1 0.342877 0.429442 0.45661  0.0970976628352
 H1 0.342872 0.429439 0.95660  0.0970976628352
 H1 0.342871 0.929433 0.45661  0.0970976628352
 H1 0.342869 0.929432 0.95661  0.0970976628352
 H1 0.842865 0.429442 0.45661  0.0970976628352
 H1 0.842861 0.429439 0.95660  0.0970976628352
 H1 0.842861 0.929433 0.45661  0.0970976628352
 H1 0.842857 0.929432 0.9566  0.0970976628352
 H1 0.366197 0.409213 0.03132  0.0970976628352
 H1 0.366193 0.409214 0.53132  0.0970976628352
 H1 0.366192 0.909206 0.03132  0.0970976628352
 H1 0.366189 0.909203 0.53132  0.0970976628352
 H1 0.866186 0.409214 0.03132  0.0970976628352
 H1 0.866182 0.409213 0.53132  0.0970976628352
 H1 0.866181 0.909205 0.03132  0.0970976628352
 H1 0.866178 0.909204 0.53132  0.0970976628352
 H2 0.332036 0.074767 0.00498  0.315618218391
 H2 0.332032 0.074765 0.50498  0.315618218391
 H2 0.332031 0.574757 0.00498  0.315618218391
 H2 0.332029 0.574756 0.50498  0.315618218391
 H2 0.832024 0.074767 0.00498  0.315618218391
 H2 0.832022 0.074765 0.50498  0.315618218391
 H2 0.83202 0.574757 0.00498  0.315618218391
 H2 0.832018 0.574756 0.50498  0.315618218391
 H2 0.248966 0.056052 0.02375  0.315618218391
 H2 0.248962 0.05605 0.52375  0.315618218391
 H2 0.248961 0.556043 0.02375  0.315618218391
 H2 0.248958 0.556042 0.52375  0.315618218391
 H2 0.748954 0.056052 0.02375  0.315618218391
 H2 0.748952 0.05605 0.52375  0.315618218391
 H2 0.74895 0.556043 0.02375  0.315618218391
 H2 0.748947 0.556042 0.52375  0.315618218391
 H1 0.375898 0.235891 0.2903  0.0970976628352
 H1 0.375895 0.235888 0.79036  0.0970976628352
 H1 0.375893 0.735881 0.29036  0.0970976628352
 H1 0.37589 0.735881 0.79036  0.0970976628352
 H1 0.875887 0.23589 0.2903  0.0970976628352
 H1 0.875884 0.235888 0.79036  0.0970976628352
 H1 0.875882 0.735881 0.29036  0.0970976628352
 H1 0.875879 0.735881 0.79036  0.0970976628352
 H1 0.470034 0.340921 0.10411  0.0970976628352
 H1 0.470031 0.340919 0.6041  0.0970976628352
 H1 0.470029 0.840912 0.10410  0.0970976628352
 H1 0.470027 0.84091 0.60410  0.0970976628352
 H1 0.970023 0.340922 0.10411  0.0970976628352
 H1 0.97002 0.340919 0.60410  0.0970976628352
 H1 0.970018 0.840912 0.10410  0.0970976628352
 H1 0.970015 0.840911 0.60410  0.0970976628352
 H1 0.376186 0.321392 0.09368  0.0970976628352
 H1 0.376183 0.32139 0.5936  0.0970976628352
 H1 0.376181 0.821382 0.09367  0.0970976628352
 H1 0.376179 0.821382 0.59367  0.0970976628352
 H1 0.876175 0.321392 0.09368  0.0970976628352
 H1 0.876172 0.32139 0.59367  0.0970976628352
 H1 0.87617 0.821382 0.09367  0.0970976628352
 H1 0.876168 0.821382 0.59367  0.0970976628352
 H2 0.052007 0.203938 0.02682  0.315618218391
 H2 0.052004 0.203934 0.52682  0.315618218391
 H2 0.052003 0.703928 0.02682  0.315618218391
 H2 0.052 0.703926 0.5268  0.315618218391
 H2 0.551996 0.203937 0.02682  0.315618218391
 H2 0.551993 0.203935 0.52682  0.315618218391
 H2 0.551992 0.703928 0.02682  0.315618218391
 H2 0.551989 0.703926 0.5268  0.315618218391
 H1 0.038014 0.339089 0.22333  0.0970976628352
 H1 0.038011 0.339086 0.72333  0.0970976628352
 H1 0.03801 0.839078 0.22332  0.0970976628352
 H1 0.038006 0.839079 0.7233  0.0970976628352
 H1 0.538003 0.339088 0.22333  0.0970976628352
 H1 0.538 0.339087 0.72333  0.0970976628352
 H1 0.537999 0.839079 0.22332  0.0970976628352
 H1 0.537996 0.839079 0.72332  0.0970976628352
 H1 0.04721 0.455479 0.36653  0.0970976628352
 H1 0.047207 0.455476 0.86653  0.0970976628352
 H1 0.047205 0.95547 0.36653  0.0970976628352
 H1 0.047205 0.955471 0.86653  0.0970976628352
 H1 0.547199 0.455479 0.36653  0.0970976628352
 H1 0.547197 0.455477 0.86653  0.0970976628352
 H1 0.547195 0.95547 0.36653  0.0970976628352
 H1 0.547193 0.95547 0.86653  0.0970976628352
 H1 0.133304 0.448534 0.40172  0.0970976628352
 H1 0.133301 0.448532 0.90172  0.0970976628352
 H1 0.1333 0.948525 0.40172  0.0970976628352
 H1 0.133298 0.948526 0.90172  0.0970976628352
 H1 0.633293 0.448534 0.40172  0.0970976628352
 H1 0.633291 0.448532 0.90172  0.0970976628352
 H1 0.633289 0.948525 0.40172  0.0970976628352
 H1 0.633286 0.948525 0.90172  0.0970976628352
 H1 0.393937 0.177956 0.49688  0.0970976628352
 H1 0.39394 0.177958 0.99688  0.0970976628352
 H1 0.393935 0.677948 0.99688  0.0970976628352
 H1 0.393933 0.677947 0.49688  0.0970976628352
 H1 0.893929 0.177958 0.99688  0.0970976628352
 H1 0.893926 0.177956 0.49688  0.0970976628352
 H1 0.893925 0.677948 0.99688  0.0970976628352
 H1 0.893922 0.677947 0.49688  0.0970976628352
 H1 0.09257 0.070904 0.04353  0.0970976628352
 H1 0.092569 0.070901 0.54352  0.0970976628352
 H1 0.092567 0.570895 0.04352  0.0970976628352
 H1 0.092564 0.570894 0.54352  0.0970976628352
 H1 0.59256 0.070904 0.04353  0.0970976628352
 H1 0.592558 0.070901 0.54352  0.0970976628352
 H1 0.592555 0.570895 0.0435  0.0970976628352
 H1 0.592553 0.570893 0.54352  0.0970976628352
 H1 0.11613 0.091189 0.46887  0.0970976628352
 H1 0.116128 0.091191 0.96888  0.0970976628352
 H1 0.116126 0.591182 0.46887  0.0970976628352
 H1 0.116123 0.591179 0.96887  0.0970976628352
 H1 0.61612 0.09119 0.46887  0.0970976628352
 H1 0.616117 0.09119 0.96888  0.0970976628352
 H1 0.616115 0.591181 0.4688  0.0970976628352
 H1 0.616112 0.59118 0.96887  0.0970976628352
 H2 0.082324 0.425243 0.49489  0.315618218391
 H2 0.082321 0.425241 0.9948  0.315618218391
 H2 0.08232 0.925233 0.49488  0.315618218391
 H2 0.082314 0.925232 0.99489  0.315618218391
 H2 0.582313 0.425242 0.49489  0.315618218391
 H2 0.58231 0.425241 0.9948  0.315618218391
 H2 0.582308 0.925233 0.4948  0.315618218391
 H2 0.582304 0.925232 0.9948  0.315618218391
 H2 0.499108 0.443621 0.47639  0.315618218391
 H2 0.499105 0.443619 0.9763  0.315618218391
 H2 0.499104 0.943612 0.47638  0.315618218391
 H2 0.4991 0.943611 0.97638  0.315618218391
 H2 0.999098 0.443621 0.47639  0.315618218391
 H2 0.999095 0.443619 0.9763  0.315618218391
 H2 0.999093 0.943611 0.47638  0.315618218391
 H2 0.999088 0.943611 0.97638  0.315618218391
 C1 0.154902 0.244576 0.24454  0.264651551724
 C1 0.154899 0.244573 0.74454  0.264651551724
 C1 0.154898 0.744566 0.24454  0.264651551724
 C1 0.154895 0.744566 0.74454  0.264651551724
 C1 0.654891 0.244575 0.24454  0.264651551724
 C1 0.654888 0.244573 0.74454  0.264651551724
 C1 0.654887 0.744566 0.24454  0.264651551724
 C1 0.654884 0.744566 0.74454  0.264651551724
 C2 0.178228 0.202908 0.40410  -0.300298448276
 C2 0.178225 0.202905 0.90410  -0.300298448276
 C2 0.178223 0.702898 0.40410  -0.300298448276
 C2 0.17822 0.702897 0.904  -0.300298448276
 C2 0.678217 0.202907 0.40410  -0.300298448276
 C2 0.678214 0.202905 0.90410  -0.300298448276
 C2 0.678213 0.702898 0.40410  -0.300298448276
 C2 0.678209 0.702897 0.904  -0.300298448276
 C3 0.237627 0.189908 0.27854  -0.0727734482759
 C3 0.237624 0.189906 0.77854  -0.0727734482759
 C3 0.237623 0.689898 0.27854  -0.0727734482759
 C3 0.237619 0.689899 0.77854  -0.0727734482759
 C3 0.737616 0.189908 0.27854  -0.0727734482759
 C3 0.737613 0.189906 0.77854  -0.0727734482759
 C3 0.737612 0.689899 0.27854  -0.0727734482759
 C3 0.737609 0.689898 0.77854  -0.0727734482759
 C4 0.18241 0.212696 0.33336  0.168096551724
 C4 0.182407 0.212693 0.83336  0.168096551724
 C4 0.182405 0.712686 0.33336  0.168096551724
 C4 0.182402 0.712686 0.83336  0.168096551724
 C4 0.682399 0.212696 0.33336  0.168096551724
 C4 0.682396 0.212694 0.83336  0.168096551724
 C4 0.682394 0.712686 0.33336  0.168096551724
 C4 0.682391 0.712685 0.83336  0.168096551724
 C5 0.328051 0.031517 0.07971  0.112816551724
 C5 0.328048 0.031514 0.5797  0.112816551724
 C5 0.328047 0.531507 0.0797  0.112816551724
 C5 0.328043 0.531507 0.57971  0.112816551724
 C5 0.82804 0.031516 0.07971  0.112816551724
 C5 0.828037 0.031515 0.57971  0.112816551724
 C5 0.828036 0.531507 0.0797  0.112816551724
 C5 0.828032 0.531507 0.57971  0.112816551724
 C6 0.195944 0.258027 0.05160  0.619306551724
 C6 0.195941 0.258025 0.55160  0.619306551724
 C6 0.195938 0.758018 0.05160  0.619306551724
 C6 0.195935 0.758016 0.551  0.619306551724
 C6 0.695933 0.258027 0.05160  0.619306551724
 C6 0.69593 0.258025 0.55160  0.619306551724
 C6 0.695927 0.758018 0.05160  0.619306551724
 C6 0.695925 0.758016 0.551  0.619306551724
 C7 0.190484 0.282071 0.48808  0.0538665517241
 C7 0.190481 0.282069 0.98808  0.0538665517241
 C7 0.190479 0.782061 0.48808  0.0538665517241
 C7 0.190476 0.782061 0.98808  0.0538665517241
 C7 0.690473 0.282071 0.48808  0.0538665517241
 C7 0.69047 0.282069 0.98808  0.0538665517241
 C7 0.690468 0.782062 0.48808  0.0538665517241
 C7 0.690465 0.78206 0.98808  0.0538665517241
 C2 0.32654 0.440624 0.01615  -0.300298448276
 C2 0.326537 0.440624 0.51615  -0.300298448276
 C2 0.326536 0.940616 0.01615  -0.300298448276
 C2 0.326532 0.940614 0.51615  -0.300298448276
 C2 0.826529 0.440624 0.01615  -0.300298448276
 C2 0.826526 0.440623 0.51615  -0.300298448276
 C2 0.826524 0.940616 0.01615  -0.300298448276
 C2 0.826521 0.940614 0.51615  -0.300298448276
 C8 0.252549 0.403765 0.0088  0.571856551724
 C8 0.252546 0.403765 0.50881  0.571856551724
 C8 0.252544 0.903758 0.00881  0.571856551724
 C8 0.252541 0.903755 0.50880  0.571856551724
 C8 0.752538 0.403765 0.00881  0.571856551724
 C8 0.752535 0.403764 0.50881  0.571856551724
 C8 0.752533 0.903757 0.00881  0.571856551724
 C8 0.75253 0.903755 0.50880  0.571856551724
 C1 0.404817 0.255488 0.2555  0.264651551724
 C1 0.404814 0.255485 0.75553  0.264651551724
 C1 0.404812 0.755478 0.25553  0.264651551724
 C1 0.404809 0.755478 0.75553  0.264651551724
 C1 0.904806 0.255487 0.25553  0.264651551724
 C1 0.904803 0.255485 0.75553  0.264651551724
 C1 0.904801 0.755478 0.25553  0.264651551724
 C1 0.904798 0.755478 0.75553  0.264651551724
 C2 0.428537 0.296962 0.0958  -0.300298448276
 C2 0.428534 0.29696 0.59586  -0.300298448276
 C2 0.428532 0.796953 0.09586  -0.300298448276
 C2 0.428529 0.796952 0.59586  -0.300298448276
 C2 0.928526 0.296963 0.0958  -0.300298448276
 C2 0.928523 0.29696 0.59586  -0.300298448276
 C2 0.928521 0.796953 0.09586  -0.300298448276
 C2 0.928518 0.796952 0.59586  -0.300298448276
 C3 0.487929 0.309878 0.22133  -0.0727734482759
 C3 0.487926 0.309875 0.72133  -0.0727734482759
 C3 0.487924 0.809868 0.22133  -0.0727734482759
 C3 0.487921 0.809868 0.72133  -0.0727734482759
 C3 0.987918 0.309878 0.22133  -0.0727734482759
 C3 0.987915 0.309875 0.72133  -0.0727734482759
 C3 0.987913 0.809868 0.22133  -0.0727734482759
 C3 0.98791 0.809868 0.72133  -0.0727734482759
 C4 0.432628 0.287224 0.16662  0.168096551724
 C4 0.432625 0.287222 0.66662  0.168096551724
 C4 0.432623 0.787214 0.16662  0.168096551724
 C4 0.43262 0.787214 0.66662  0.168096551724
 C4 0.932617 0.287224 0.16662  0.168096551724
 C4 0.932614 0.287222 0.66662  0.168096551724
 C4 0.932612 0.787214 0.16662  0.168096551724
 C4 0.932609 0.787214 0.66662  0.168096551724
 C5 0.077949 0.468714 0.42035  0.112816551724
 C5 0.077947 0.468711 0.92035  0.112816551724
 C5 0.077945 0.968704 0.42035  0.112816551724
 C5 0.077943 0.968705 0.92035  0.112816551724
 C5 0.577938 0.468714 0.42035  0.112816551724
 C5 0.577936 0.468712 0.92035  0.112816551724
 C5 0.577934 0.968704 0.42035  0.112816551724
 C5 0.577931 0.968704 0.92035  0.112816551724
 C6 0.445981 0.241887 0.44842  0.619306551724
 C6 0.445978 0.241885 0.94842  0.619306551724
 C6 0.445977 0.741878 0.44842  0.619306551724
 C6 0.445974 0.741876 0.94842  0.619306551724
 C6 0.94597 0.241887 0.44842  0.619306551724
 C6 0.945967 0.241885 0.94842  0.619306551724
 C6 0.945966 0.741878 0.44842  0.619306551724
 C6 0.945963 0.741876 0.94842  0.619306551724
 C7 0.440524 0.21777 0.01190  0.0538665517241
 C7 0.440521 0.217768 0.511  0.0538665517241
 C7 0.44052 0.71776 0.01189  0.0538665517241
 C7 0.440517 0.717759 0.51189  0.0538665517241
 C7 0.940514 0.21777 0.01190  0.0538665517241
 C7 0.94051 0.217768 0.511  0.0538665517241
 C7 0.940509 0.71776 0.01189  0.0538665517241
 C7 0.940506 0.717759 0.51189  0.0538665517241
 C2 0.076386 0.059601 0.48390  -0.300298448276
 C2 0.076383 0.059602 0.98390  -0.300298448276
 C2 0.076382 0.559594 0.48390  -0.300298448276
 C2 0.076379 0.559591 0.98390  -0.300298448276
 C2 0.576375 0.059602 0.48390  -0.300298448276
 C2 0.576372 0.059601 0.98390  -0.300298448276
 C2 0.576371 0.559594 0.48390  -0.300298448276
 C2 0.576368 0.559592 0.98390  -0.300298448276
 C8 0.002429 0.096135 0.49099  0.571856551724
 C8 0.002426 0.096136 0.99099  0.571856551724
 C8 0.002424 0.596128 0.49099  0.571856551724
 C8 0.002421 0.596125 0.99099  0.571856551724
 C8 0.502418 0.096136 0.49099  0.571856551724
 C8 0.502415 0.096135 0.99099  0.571856551724
 C8 0.502413 0.596128 0.49099  0.571856551724
 C8 0.50241 0.596125 0.99099  0.571856551724
 N1 0.297746 0.081132 0.0496  -0.651733448276
 N1 0.297743 0.08113 0.54962  -0.651733448276
 N1 0.297741 0.581123 0.04962  -0.651733448276
 N1 0.297738 0.581122 0.54962  -0.651733448276
 N1 0.797735 0.081132 0.0496  -0.651733448276
 N1 0.797732 0.08113 0.54962  -0.651733448276
 N1 0.79773 0.581123 0.04962  -0.651733448276
 N1 0.797727 0.581122 0.54962  -0.651733448276
 N2 0.253396 0.326153 0.48897  -0.440763448276
 N2 0.253393 0.32615 0.98897  -0.440763448276
 N2 0.253392 0.826143 0.48897  -0.440763448276
 N2 0.253389 0.826142 0.98897  -0.440763448276
 N2 0.753385 0.326153 0.48897  -0.440763448276
 N2 0.753382 0.326151 0.98897  -0.440763448276
 N2 0.753381 0.826143 0.48897  -0.440763448276
 N2 0.753378 0.826142 0.98897  -0.440763448276
 N3 0.220233 0.210194 0.22244  -0.449773448276
 N3 0.22023 0.210191 0.72244  -0.449773448276
 N3 0.220229 0.710184 0.22244  -0.449773448276
 N3 0.220226 0.710184 0.72244  -0.449773448276
 N3 0.720222 0.210193 0.22244  -0.449773448276
 N3 0.720219 0.210191 0.72244  -0.449773448276
 N3 0.720218 0.710184 0.22244  -0.449773448276
 N3 0.720215 0.710184 0.72244  -0.449773448276
 N3 0.129716 0.24778 0.31133  -0.449773448276
 N3 0.129713 0.247777 0.81133  -0.449773448276
 N3 0.129711 0.74777 0.31133  -0.449773448276
 N3 0.129708 0.74777 0.81133  -0.449773448276
 N3 0.629705 0.247779 0.31133  -0.449773448276
 N3 0.629702 0.247777 0.81133  -0.449773448276
 N3 0.6297 0.74777 0.31133  -0.449773448276
 N3 0.629697 0.747769 0.81133  -0.449773448276
 N1 0.047868 0.418857 0.45039  -0.651733448276
 N1 0.047865 0.418855 0.95039  -0.651733448276
 N1 0.047864 0.918847 0.45039  -0.651733448276
 N1 0.04786 0.918847 0.95039  -0.651733448276
 N1 0.547857 0.418857 0.45039  -0.651733448276
 N1 0.547854 0.418855 0.95039  -0.651733448276
 N1 0.547853 0.918847 0.45039  -0.651733448276
 N1 0.547849 0.918846 0.95039  -0.651733448276
 N2 0.003353 0.173812 0.01100  -0.440763448276
 N2 0.00335 0.173809 0.51100  -0.440763448276
 N2 0.003348 0.673802 0.01100  -0.440763448276
 N2 0.003345 0.673801 0.51100  -0.440763448276
 N2 0.503342 0.173811 0.01100  -0.440763448276
 N2 0.503339 0.173809 0.51100  -0.440763448276
 N2 0.503337 0.673802 0.01100  -0.440763448276
 N2 0.503334 0.6738 0.51100  -0.440763448276
 N3 0.470345 0.28968 0.27749  -0.449773448276
 N3 0.470342 0.289678 0.77749  -0.449773448276
 N3 0.47034 0.789671 0.27749  -0.449773448276
 N3 0.470337 0.78967 0.77749  -0.449773448276
 N3 0.970334 0.28968 0.27749  -0.449773448276
 N3 0.970331 0.289678 0.77749  -0.449773448276
 N3 0.970329 0.78967 0.27749  -0.449773448276
 N3 0.970326 0.789671 0.77749  -0.449773448276
 N3 0.379689 0.252312 0.18876  -0.449773448276
 N3 0.379686 0.25231 0.68876  -0.449773448276
 N3 0.379684 0.752302 0.18876  -0.449773448276
 N3 0.379681 0.752302 0.68876  -0.449773448276
 N3 0.879678 0.252312 0.18876  -0.449773448276
 N3 0.879675 0.25231 0.68876  -0.449773448276
 N3 0.879674 0.752302 0.18876  -0.449773448276
 N3 0.879671 0.752302 0.68876  -0.449773448276
 O1 0.260365 0.249548 0.07013  -0.597733448276
 O1 0.260362 0.249547 0.57013  -0.597733448276
 O1 0.260359 0.749539 0.07013  -0.597733448276
 O1 0.260357 0.749538 0.57013  -0.597733448276
 O1 0.760354 0.249548 0.07013  -0.597733448276
 O1 0.760351 0.249547 0.57013  -0.597733448276
 O1 0.760348 0.749539 0.07013  -0.597733448276
 O1 0.760346 0.749538 0.57013  -0.597733448276
 O2 0.139728 0.244612 0.0775  -0.581423448276
 O2 0.139725 0.244608 0.57751  -0.581423448276
 O2 0.139722 0.744603 0.07751  -0.581423448276
 O2 0.13972 0.744601 0.57751  -0.581423448276
 O2 0.639718 0.244611 0.0775  -0.581423448276
 O2 0.639715 0.244608 0.57751  -0.581423448276
 O2 0.639712 0.744603 0.07751  -0.581423448276
 O2 0.639709 0.744601 0.57751  -0.581423448276
 O2 0.196875 0.444945 0.0226  -0.581423448276
 O2 0.196872 0.444945 0.52265  -0.581423448276
 O2 0.196871 0.944938 0.02265  -0.581423448276
 O2 0.196868 0.944935 0.52264  -0.581423448276
 O2 0.696864 0.444946 0.0226  -0.581423448276
 O2 0.696861 0.444944 0.5226  -0.581423448276
 O2 0.69686 0.944938 0.02265  -0.581423448276
 O2 0.696857 0.944935 0.52264  -0.581423448276
 O1 0.01043 0.250097 0.42956  -0.597733448276
 O1 0.010427 0.250095 0.92956  -0.597733448276
 O1 0.010426 0.750087 0.42956  -0.597733448276
 O1 0.010422 0.750087 0.92956  -0.597733448276
 O1 0.510419 0.250096 0.42956  -0.597733448276
 O1 0.510416 0.250095 0.92956  -0.597733448276
 O1 0.510415 0.750087 0.42956  -0.597733448276
 O1 0.510411 0.750086 0.92956  -0.597733448276
 O2 0.389808 0.25568 0.42291  -0.581423448276
 O2 0.389805 0.255676 0.92291  -0.581423448276
 O2 0.389804 0.75567 0.42291  -0.581423448276
 O2 0.389801 0.755668 0.9229  -0.581423448276
 O2 0.889797 0.255679 0.42291  -0.581423448276
 O2 0.889794 0.255677 0.92291  -0.581423448276
 O2 0.889793 0.75567 0.42291  -0.581423448276
 O2 0.88979 0.755668 0.9229  -0.581423448276
 O2 0.446738 0.054677 0.4768  -0.581423448276
 O2 0.446735 0.054677 0.97686  -0.581423448276
 O2 0.446733 0.554669 0.47686  -0.581423448276
 O2 0.44673 0.554667 0.97685  -0.581423448276
 O2 0.946727 0.054677 0.4768  -0.581423448276
 O2 0.946724 0.054677 0.97686  -0.581423448276
 O2 0.946722 0.554669 0.47686  -0.581423448276
 O2 0.946719 0.554667 0.97685  -0.581423448276
