#======================================================================

# CRYSTAL DATA

#----------------------------------------------------------------------

data_VESTA_phase_1


_pd_phase_name                         MOF
_cell_length_a                         14.67800
_cell_length_b                         21.37600
_cell_length_c                         21.37600
_cell_angle_alpha                      83.23600
_cell_angle_beta                       69.92700
_cell_angle_gamma                      69.92900
_symmetry_space_group_name_H-M         "P 1"
_symmetry_Int_Tables_number            1

loop_
_symmetry_equiv_pos_as_xyz
   "x, y, z"

loop_
   _atom_site_label
   _atom_site_fract_x
   _atom_site_fract_y
   _atom_site_fract_z
 _atom_site_charge
 Ca1 0.062554 0.23096 0.01889  1.55773638889
 Ca1 0.062496 0.230905 0.5191  1.55773638889
 Ca1 0.062404 0.731087 0.01916  1.55773638889
 Ca1 0.062419 0.731123 0.51888  1.55773638889
 Ca1 0.562545 0.230959 0.01890  1.55773638889
 Ca1 0.562487 0.230904 0.51917  1.55773638889
 Ca1 0.562399 0.731088 0.01916  1.55773638889
 Ca1 0.562411 0.731125 0.51888  1.55773638889
 Ca1 0.312515 0.268898 0.48108  1.55773638889
 Ca1 0.312528 0.26893 0.98088  1.55773638889
 Ca1 0.312489 0.769132 0.48082  1.55773638889
 Ca1 0.312503 0.769079 0.98115  1.55773638889
 Ca1 0.812507 0.268898 0.48108  1.55773638889
 Ca1 0.812521 0.268928 0.98088  1.55773638889
 Ca1 0.812481 0.769134 0.48082  1.55773638889
 Ca1 0.812493 0.769081 0.98115  1.55773638889
 Ca1 0.418462 0.01921 0.26888  1.55773638889
 Ca1 0.418515 0.018866 0.76912  1.55773638889
 Ca1 0.418601 0.518914 0.26893  1.55773638889
 Ca1 0.418349 0.519222 0.76907  1.55773638889
 Ca1 0.918456 0.019207 0.26888  1.55773638889
 Ca1 0.918509 0.018862 0.76912  1.55773638889
 Ca1 0.918595 0.518914 0.26892  1.55773638889
 Ca1 0.918345 0.519222 0.76907  1.55773638889
 Ca1 0.206723 0.480837 0.23088  1.55773638889
 Ca1 0.206471 0.481111 0.73110  1.55773638889
 Ca1 0.206529 0.981107 0.23089  1.55773638889
 Ca1 0.206593 0.980842 0.73112  1.55773638889
 Ca1 0.706716 0.480837 0.23088  1.55773638889
 Ca1 0.706466 0.481108 0.73109  1.55773638889
 Ca1 0.706519 0.981107 0.23089  1.55773638889
 Ca1 0.706585 0.980845 0.73112  1.55773638889
 C1 0.114469 0.333329 0.41082  0.221155763889
 C1 0.114354 0.333499 0.91082  0.221155763889
 C1 0.114204 0.833816 0.41080  0.221155763889
 C1 0.114202 0.833786 0.91127  0.221155763889
 C1 0.614473 0.333316 0.41081  0.221155763889
 C1 0.614366 0.333478 0.91080  0.221155763889
 C1 0.614197 0.83381 0.41080  0.221155763889
 C1 0.614194 0.833786 0.91127  0.221155763889
 C1 0.025429 0.357676 0.11586  0.221155763889
 C1 0.025176 0.357613 0.61632  0.221155763889
 C1 0.024984 0.857993 0.11590  0.221155763889
 C1 0.02507 0.857736 0.61606  0.221155763889
 C1 0.525428 0.357663 0.11587  0.221155763889
 C1 0.525162 0.357613 0.61633  0.221155763889
 C1 0.524978 0.857989 0.11591  0.221155763889
 C1 0.525062 0.857739 0.61606  0.221155763889
 C1 0.35902 0.166318 0.08881  0.221155763889
 C1 0.35882 0.166252 0.58920  0.221155763889
 C1 0.358839 0.666401 0.08905  0.221155763889
 C1 0.358432 0.66679 0.58922  0.221155763889
 C1 0.859015 0.166318 0.08881  0.221155763889
 C1 0.858814 0.166253 0.58920  0.221155763889
 C1 0.858826 0.666403 0.08905  0.221155763889
 C1 0.85843 0.666787 0.5892  0.221155763889
 C1 0.998811 0.142256 0.38395  0.221155763889
 C1 0.998896 0.141852 0.88432  0.221155763889
 C1 0.999077 0.642486 0.38361  0.221155763889
 C1 0.998831 0.642283 0.88425  0.221155763889
 C1 0.498807 0.142255 0.38395  0.221155763889
 C1 0.498891 0.141853 0.88432  0.221155763889
 C1 0.499074 0.642493 0.38361  0.221155763889
 C1 0.498831 0.642285 0.88425  0.221155763889
 C1 0.475005 0.410782 0.16632  0.221155763889
 C1 0.474765 0.410893 0.66662  0.221155763889
 C1 0.47469 0.911116 0.16634  0.221155763889
 C1 0.474798 0.910841 0.66653  0.221155763889
 C1 0.974998 0.410774 0.16633  0.221155763889
 C1 0.974763 0.410891 0.66662  0.221155763889
 C1 0.974683 0.911117 0.16634  0.221155763889
 C1 0.974788 0.910849 0.6665  0.221155763889
 C1 0.359212 0.115814 0.1418  0.221155763889
 C1 0.358839 0.115802 0.64233  0.221155763889
 C1 0.359018 0.615872 0.14211  0.221155763889
 C1 0.358304 0.616491 0.64250  0.221155763889
 C1 0.859204 0.115818 0.14188  0.221155763889
 C1 0.85883 0.115804 0.64233  0.221155763889
 C1 0.859009 0.615871 0.14210  0.221155763889
 C1 0.858297 0.616494 0.64250  0.221155763889
 C1 0.052125 0.089198 0.33343  0.221155763889
 C1 0.052151 0.088733 0.83385  0.221155763889
 C1 0.052227 0.589294 0.33321  0.221155763889
 C1 0.052014 0.589178 0.83378  0.221155763889
 C1 0.552122 0.0892 0.33343  0.221155763889
 C1 0.552145 0.088734 0.83385  0.221155763889
 C1 0.552217 0.589278 0.33323  0.221155763889
 C1 0.55201 0.589175 0.83378  0.221155763889
 C1 0.117284 0.383665 0.35757  0.221155763889
 C1 0.117273 0.383949 0.85769  0.221155763889
 C1 0.116906 0.884309 0.35772  0.221155763889
 C1 0.117047 0.884188 0.85810  0.221155763889
 C1 0.617279 0.383667 0.3575  0.221155763889
 C1 0.617264 0.383957 0.8577  0.221155763889
 C1 0.616887 0.884322 0.3577  0.221155763889
 C1 0.61704 0.884189 0.85810  0.221155763889
 C1 0.266307 0.160887 0.0834  0.221155763889
 C1 0.266326 0.160679 0.58359  0.221155763889
 C1 0.266212 0.660894 0.08359  0.221155763889
 C1 0.266045 0.661087 0.58354  0.221155763889
 C1 0.766292 0.160895 0.08344  0.221155763889
 C1 0.766314 0.160686 0.58359  0.221155763889
 C1 0.766205 0.660891 0.08358  0.221155763889
 C1 0.766036 0.66109 0.58354  0.221155763889
 C1 0.126319 0.365913 0.10766  0.221155763889
 C1 0.126043 0.365954 0.60793  0.221155763889
 C1 0.12601 0.865916 0.1079  0.221155763889
 C1 0.126053 0.865793 0.60787  0.221155763889
 C1 0.626312 0.365919 0.10766  0.221155763889
 C1 0.626029 0.365958 0.60793  0.221155763889
 C1 0.626003 0.865917 0.10790  0.221155763889
 C1 0.626047 0.865789 0.60788  0.221155763889
 C1 0.010755 0.338962 0.41647  0.221155763889
 C1 0.010867 0.338939 0.91608  0.221155763889
 C1 0.010519 0.839419 0.41643  0.221155763889
 C1 0.010758 0.839124 0.91656  0.221155763889
 C1 0.510745 0.338968 0.4164  0.221155763889
 C1 0.51085 0.338954 0.91610  0.221155763889
 C1 0.510495 0.839436 0.41644  0.221155763889
 C1 0.510749 0.839126 0.91656  0.221155763889
 C1 0.09967 0.134171 0.39215  0.221155763889
 C1 0.099835 0.133827 0.89237  0.221155763889
 C1 0.099912 0.634057 0.39203  0.221155763889
 C1 0.099726 0.633969 0.89254  0.221155763889
 C1 0.599665 0.134172 0.39215  0.221155763889
 C1 0.599829 0.133826 0.89237  0.221155763889
 C1 0.599904 0.634045 0.39204  0.221155763889
 C1 0.599727 0.633972 0.89253  0.221155763889
 C1 0.073071 0.41634 0.16082  0.221155763889
 C1 0.072869 0.41651 0.66099  0.221155763889
 C1 0.072854 0.91641 0.16099  0.221155763889
 C1 0.072984 0.916201 0.66105  0.221155763889
 C1 0.573068 0.416323 0.16084  0.221155763889
 C1 0.572857 0.416509 0.66099  0.221155763889
 C1 0.572847 0.916408 0.16099  0.221155763889
 C1 0.572975 0.916212 0.66104  0.221155763889
 C1 0.008036 0.392076 0.36598  0.221155763889
 C1 0.008259 0.392138 0.865  0.221155763889
 C1 0.0077 0.89264 0.36607  0.221155763889
 C1 0.008099 0.892185 0.86605  0.221155763889
 C1 0.508039 0.392067 0.3659  0.221155763889
 C1 0.508265 0.392124 0.8656  0.221155763889
 C1 0.50769 0.892638 0.36606  0.221155763889
 C1 0.508092 0.892184 0.86605  0.221155763889
 C1 0.150181 0.08381 0.33893  0.221155763889
 C1 0.150248 0.083392 0.83924  0.221155763889
 C1 0.150299 0.583599 0.33890  0.221155763889
 C1 0.150097 0.583541 0.83939  0.221155763889
 C1 0.650175 0.083802 0.33894  0.221155763889
 C1 0.650242 0.083392 0.83925  0.221155763889
 C1 0.650295 0.583611 0.33889  0.221155763889
 C1 0.650096 0.583546 0.83938  0.221155763889
 C1 0.266345 0.107713 0.13382  0.221155763889
 C1 0.266232 0.107546 0.6340  0.221155763889
 C1 0.266346 0.607642 0.13391  0.221155763889
 C1 0.265924 0.608039 0.63409  0.221155763889
 C1 0.766326 0.107725 0.13384  0.221155763889
 C1 0.766221 0.10755 0.63404  0.221155763889
 C1 0.766338 0.60764 0.13390  0.221155763889
 C1 0.765925 0.608034 0.63409  0.221155763889
 O1 0.172109 0.296747 0.44319  -0.625166111111
 O1 0.171863 0.296914 0.94328  -0.625166111111
 O1 0.171972 0.797132 0.44305  -0.625166111111
 O1 0.171746 0.797289 0.9437  -0.625166111111
 O1 0.672104 0.296743 0.44319  -0.625166111111
 O1 0.671859 0.296912 0.94328  -0.625166111111
 O1 0.671958 0.797136 0.44305  -0.625166111111
 O1 0.671736 0.797293 0.94374  -0.625166111111
 O2 0.997312 0.320542 0.09084  -0.596013611111
 O2 0.997126 0.320266 0.59153  -0.596013611111
 O2 0.996666 0.821041 0.09081  -0.596013611111
 O2 0.996838 0.820678 0.5910  -0.596013611111
 O2 0.497305 0.320544 0.09084  -0.596013611111
 O2 0.497112 0.320267 0.59153  -0.596013611111
 O2 0.496661 0.821039 0.09081  -0.596013611111
 O2 0.496831 0.82067 0.59105  -0.596013611111
 O1 0.412453 0.202899 0.05644  -0.625166111111
 O1 0.412237 0.202863 0.55688  -0.625166111111
 O1 0.412189 0.703056 0.05675  -0.625166111111
 O1 0.411923 0.703324 0.55680  -0.625166111111
 O1 0.912454 0.202894 0.0564  -0.625166111111
 O1 0.912231 0.202864 0.55688  -0.625166111111
 O1 0.912176 0.703059 0.05675  -0.625166111111
 O1 0.911912 0.703327 0.55680  -0.625166111111
 O2 0.408512 0.179297 0.40897  -0.596013611111
 O2 0.408613 0.178909 0.90934  -0.596013611111
 O2 0.408912 0.67979 0.40849  -0.596013611111
 O2 0.408607 0.679472 0.9091  -0.596013611111
 O2 0.9085 0.17929 0.40898  -0.596013611111
 O2 0.908603 0.178907 0.90935  -0.596013611111
 O2 0.908905 0.679797 0.40848  -0.596013611111
 O2 0.908595 0.679476 0.90917  -0.596013611111
 O1 0.384983 0.443082 0.20294  -0.625166111111
 O1 0.384746 0.443325 0.70313  -0.625166111111
 O1 0.384689 0.94356 0.20286  -0.625166111111
 O1 0.384817 0.943259 0.7031  -0.625166111111
 O1 0.884975 0.443086 0.20293  -0.625166111111
 O1 0.884742 0.443327 0.70312  -0.625166111111
 O1 0.884681 0.943564 0.20286  -0.625166111111
 O1 0.884808 0.943258 0.70310  -0.625166111111
 O2 0.412486 0.090781 0.17891  -0.596013611111
 O2 0.411841 0.090849 0.67954  -0.596013611111
 O2 0.412148 0.590853 0.17923  -0.596013611111
 O2 0.411049 0.591711 0.67989  -0.596013611111
 O2 0.912487 0.090781 0.17891  -0.596013611111
 O2 0.911836 0.090847 0.67954  -0.596013611111
 O2 0.912136 0.590855 0.17923  -0.596013611111
 O2 0.911048 0.59171 0.67989  -0.596013611111
 O1 0.031189 0.056812 0.29678  -0.625166111111
 O1 0.031151 0.056286 0.79729  -0.625166111111
 O1 0.031194 0.556959 0.29657  -0.625166111111
 O1 0.030958 0.556893 0.79711  -0.625166111111
 O1 0.531182 0.056811 0.29678  -0.625166111111
 O1 0.531144 0.056288 0.79729  -0.625166111111
 O1 0.531188 0.556959 0.29657  -0.625166111111
 O1 0.530954 0.55689 0.79711  -0.625166111111
 O2 0.182629 0.408504 0.32026  -0.596013611111
 O2 0.182557 0.408997 0.82070  -0.596013611111
 O2 0.182223 0.909238 0.32055  -0.596013611111
 O2 0.182327 0.909221 0.82108  -0.596013611111
 O2 0.68263 0.408496 0.3202  -0.596013611111
 O2 0.682563 0.408982 0.82069  -0.596013611111
 O2 0.682214 0.909236 0.32055  -0.596013611111
 O2 0.682319 0.909222 0.8210  -0.596013611111
 O1 0.212669 0.193349 0.04700  -0.625166111111
 O1 0.212962 0.193018 0.54695  -0.625166111111
 O1 0.212594 0.693342 0.04715  -0.625166111111
 O1 0.212813 0.693278 0.54678  -0.625166111111
 O1 0.712654 0.193356 0.04701  -0.625166111111
 O1 0.712951 0.193024 0.54696  -0.625166111111
 O1 0.712587 0.693341 0.04714  -0.625166111111
 O1 0.712806 0.693277 0.54678  -0.625166111111
 O2 0.216571 0.340988 0.07051  -0.596013611111
 O2 0.216206 0.341008 0.57066  -0.596013611111
 O2 0.216322 0.840722 0.07097  -0.596013611111
 O2 0.21627 0.84071 0.57074  -0.596013611111
 O2 0.71657 0.340979 0.07053  -0.596013611111
 O2 0.716192 0.341011 0.57066  -0.596013611111
 O2 0.716315 0.840721 0.0709  -0.596013611111
 O2 0.71626 0.840716 0.5707  -0.596013611111
 O1 0.453013 0.30672 0.4532  -0.625166111111
 O1 0.453146 0.306552 0.95251  -0.625166111111
 O1 0.452846 0.807069 0.45304  -0.625166111111
 O1 0.453128 0.806686 0.9530  -0.625166111111
 O1 0.953004 0.306722 0.45323  -0.625166111111
 O1 0.953134 0.306554 0.95251  -0.625166111111
 O1 0.952845 0.807064 0.4530  -0.625166111111
 O1 0.953123 0.806683 0.95302  -0.625166111111
 O2 0.127669 0.159212 0.42933  -0.596013611111
 O2 0.128014 0.158927 0.92940  -0.596013611111
 O2 0.127944 0.658914 0.42934  -0.596013611111
 O2 0.127861 0.658871 0.92975  -0.596013611111
 O2 0.627662 0.159207 0.42934  -0.596013611111
 O2 0.628007 0.158923 0.92940  -0.596013611111
 O2 0.62794 0.658919 0.4293  -0.596013611111
 O2 0.627867 0.658879 0.92973  -0.596013611111
 O1 0.094046 0.452969 0.19320  -0.625166111111
 O1 0.093864 0.453252 0.69324  -0.625166111111
 O1 0.093979 0.952899 0.19342  -0.625166111111
 O1 0.094159 0.952679 0.69346  -0.625166111111
 O1 0.594037 0.452968 0.19320  -0.625166111111
 O1 0.593854 0.453253 0.69324  -0.625166111111
 O1 0.593971 0.952901 0.19342  -0.625166111111
 O1 0.594152 0.952683 0.69346  -0.625166111111
 O2 0.442732 0.429356 0.34110  -0.596013611111
 O2 0.443163 0.429289 0.84059  -0.596013611111
 O2 0.442311 0.929912 0.34124  -0.596013611111
 O2 0.442962 0.929105 0.84085  -0.596013611111
 O2 0.94272 0.429354 0.34109  -0.596013611111
 O2 0.943157 0.429282 0.84058  -0.596013611111
 O2 0.942314 0.929901 0.34123  -0.596013611111
 O2 0.942954 0.929105 0.8408  -0.596013611111
 O1 0.24024 0.04736 0.3065  -0.625166111111
 O1 0.240309 0.046977 0.80679  -0.625166111111
 O1 0.240288 0.546864 0.30668  -0.625166111111
 O1 0.240096 0.54692 0.80706  -0.625166111111
 O1 0.740235 0.047353 0.30652  -0.625166111111
 O1 0.740303 0.046976 0.80679  -0.625166111111
 O1 0.740281 0.546863 0.30668  -0.625166111111
 O1 0.740094 0.54692 0.80705  -0.625166111111
 O2 0.213152 0.070633 0.15886  -0.596013611111
 O2 0.213192 0.070348 0.65895  -0.596013611111
 O2 0.213345 0.570429 0.15886  -0.596013611111
 O2 0.213101 0.57071 0.65900  -0.596013611111
 O2 0.713123 0.070652 0.15889  -0.596013611111
 O2 0.713176 0.070356 0.65896  -0.596013611111
 O2 0.713342 0.570423 0.15885  -0.596013611111
 O2 0.713096 0.57071 0.65900  -0.596013611111
