#======================================================================

# CRYSTAL DATA

#----------------------------------------------------------------------

data_VESTA_phase_1


_pd_phase_name                         MOF
_cell_length_a                         22.22200
_cell_length_b                         16.16800
_cell_length_c                         15.92200
_cell_angle_alpha                      89.99800
_cell_angle_beta                       91.13600
_cell_angle_gamma                      89.99900
_symmetry_space_group_name_H-M         "P 1"
_symmetry_Int_Tables_number            1

loop_
_symmetry_equiv_pos_as_xyz
   "x, y, z"

loop_
   _atom_site_label
   _atom_site_fract_x
   _atom_site_fract_y
   _atom_site_fract_z
 _atom_site_charge
 Zn1 0.250217 0.500002 0.5864  0.947601428571
 Zn1 0.750219 0.500002 0.58640  0.947601428571
 Zn1 0.249789 0.500005 0.41356  0.947601428571
 Zn1 0.749793 0.500005 0.41356  0.947601428571
 H1 0.069354 0.836815 0.36492  0.109320178571
 H1 0.569359 0.836815 0.36492  0.109320178571
 H1 0.127394 0.702338 0.63514  0.109320178571
 H1 0.627399 0.702339 0.63514  0.109320178571
 H1 0.128187 0.704932 0.36611  0.109320178571
 H1 0.628192 0.704933 0.36611  0.109320178571
 H1 0.068385 0.83405 0.63504  0.109320178571
 H1 0.56839 0.83405 0.63504  0.109320178571
 H1 0.430646 0.83681 0.63504  0.109320178571
 H1 0.93065 0.836809 0.63504  0.109320178571
 H1 0.37261 0.702351 0.36482  0.109320178571
 H1 0.872614 0.702351 0.36482  0.109320178571
 H1 0.371814 0.704931 0.63385  0.109320178571
 H1 0.871818 0.704931 0.63385  0.109320178571
 H1 0.431618 0.834059 0.36492  0.109320178571
 H1 0.931622 0.83406 0.36492  0.109320178571
 H1 0.43065 0.163192 0.63504  0.109320178571
 H1 0.930653 0.163191 0.63504  0.109320178571
 H1 0.372611 0.297668 0.36482  0.109320178571
 H1 0.872613 0.297668 0.36482  0.109320178571
 H1 0.371817 0.295074 0.63385  0.109320178571
 H1 0.87182 0.295073 0.6338  0.109320178571
 H1 0.43162 0.165957 0.36492  0.109320178571
 H1 0.931622 0.165956 0.36492  0.109320178571
 H1 0.069357 0.163198 0.36492  0.109320178571
 H1 0.569364 0.163196 0.36492  0.109320178571
 H1 0.127393 0.297656 0.63514  0.109320178571
 H1 0.627399 0.297655 0.63514  0.109320178571
 H1 0.128189 0.295076 0.36611  0.109320178571
 H1 0.628196 0.295075 0.36611  0.109320178571
 H1 0.068385 0.165948 0.63504  0.109320178571
 H1 0.56839 0.165947 0.63504  0.109320178571
 H1 0.34888 0.499979 0.71426  0.109320178571
 H1 0.848883 0.5 0.71426  0.109320178571
 H1 0.163253 0.499999 0.72737  0.109320178571
 H1 0.663256 0.499999 0.72737  0.109320178571
 H1 0.166871 0.499995 0.8863  0.109320178571
 H1 0.666874 0.5 0.88637  0.109320178571
 H1 0.360515 0.499971 0.87325  0.109320178571
 H1 0.860518 0.5 0.87325  0.109320178571
 H1 0.151125 0.500028 0.28570  0.109320178571
 H1 0.651128 0.500007 0.28570  0.109320178571
 H1 0.336752 0.500007 0.272  0.109320178571
 H1 0.836756 0.500008 0.27259  0.109320178571
 H1 0.333134 0.500011 0.11359  0.109320178571
 H1 0.833138 0.500007 0.11359  0.109320178571
 H1 0.13949 0.500036 0.12671  0.109320178571
 H1 0.639493 0.500006 0.12671  0.109320178571
 C1 0.131097 0.695613 0.5006  -0.0224885714286
 C1 0.631101 0.695613 0.5006  -0.0224885714286
 C1 0.031757 0.923885 0.49978  -0.0224885714286
 C1 0.531761 0.923884 0.49978  -0.0224885714286
 C2 0.081655 0.806933 0.42422  -0.114725071429
 C2 0.58166 0.806933 0.42422  -0.114725071429
 C2 0.113872 0.73202 0.5763  -0.114725071429
 C2 0.613877 0.73202 0.5763  -0.114725071429
 C2 0.114327 0.733476 0.42458  -0.114725071429
 C2 0.614332 0.733476 0.42458  -0.114725071429
 C1 0.065153 0.84397 0.49994  -0.0224885714286
 C1 0.565157 0.84397 0.49994  -0.0224885714286
 C3 0.169567 0.619408 0.50134  0.687501428571
 C3 0.669573 0.619409 0.50134  0.687501428571
 C2 0.081125 0.805398 0.57599  -0.114725071429
 C2 0.58113 0.805398 0.57599  -0.114725071429
 C1 0.368905 0.695618 0.499  -0.0224885714286
 C1 0.86891 0.695617 0.49929  -0.0224885714286
 C1 0.468247 0.923886 0.50018  -0.0224885714286
 C1 0.968251 0.923886 0.50018  -0.0224885714286
 C2 0.418346 0.806932 0.57574  -0.114725071429
 C2 0.91835 0.806932 0.57574  -0.114725071429
 C2 0.38613 0.732029 0.4236  -0.114725071429
 C2 0.886135 0.732029 0.42361  -0.114725071429
 C2 0.385674 0.733477 0.57538  -0.114725071429
 C2 0.885678 0.733476 0.57538  -0.114725071429
 C1 0.43485 0.843973 0.50002  -0.0224885714286
 C1 0.934854 0.843973 0.50002  -0.0224885714286
 C3 0.330436 0.619411 0.49862  0.687501428571
 C3 0.830439 0.619412 0.49862  0.687501428571
 C2 0.418877 0.805406 0.42397  -0.114725071429
 C2 0.918881 0.805405 0.42397  -0.114725071429
 C1 0.368908 0.304393 0.49930  -0.0224885714286
 C1 0.868911 0.304393 0.49930  -0.0224885714286
 C1 0.468248 0.076123 0.50018  -0.0224885714286
 C1 0.968251 0.076122 0.50018  -0.0224885714286
 C2 0.41835 0.193074 0.57574  -0.114725071429
 C2 0.918352 0.193073 0.57574  -0.114725071429
 C2 0.386132 0.267987 0.42362  -0.114725071429
 C2 0.886135 0.267986 0.42362  -0.114725071429
 C2 0.385677 0.266531 0.57538  -0.114725071429
 C2 0.88568 0.26653 0.57538  -0.114725071429
 C1 0.434852 0.156037 0.50002  -0.0224885714286
 C1 0.934855 0.156037 0.50002  -0.0224885714286
 C3 0.330437 0.380599 0.49862  0.687501428571
 C3 0.830439 0.380598 0.49862  0.687501428571
 C2 0.418879 0.194609 0.42397  -0.114725071429
 C2 0.918881 0.194608 0.42397  -0.114725071429
 C1 0.131098 0.30439 0.50067  -0.0224885714286
 C1 0.631103 0.304389 0.50067  -0.0224885714286
 C1 0.031756 0.076121 0.49978  -0.0224885714286
 C1 0.531762 0.076121 0.49978  -0.0224885714286
 C2 0.081657 0.193075 0.42422  -0.114725071429
 C2 0.581664 0.193074 0.42422  -0.114725071429
 C2 0.113873 0.267978 0.57635  -0.114725071429
 C2 0.613878 0.267977 0.57635  -0.114725071429
 C2 0.11433 0.266531 0.42458  -0.114725071429
 C2 0.614336 0.26653 0.42458  -0.114725071429
 C1 0.065154 0.156034 0.49994  -0.0224885714286
 C1 0.565159 0.156033 0.49994  -0.0224885714286
 C3 0.169568 0.380596 0.50134  0.687501428571
 C3 0.669574 0.380594 0.50134  0.687501428571
 C2 0.081126 0.194602 0.57599  -0.114725071429
 C2 0.581132 0.194601 0.57599  -0.114725071429
 C4 0.310197 0.499983 0.75530  0.176946428571
 C4 0.810201 0.5 0.75530  0.176946428571
 C4 0.205685 0.499995 0.7629  0.176946428571
 C4 0.705688 0.499999 0.76293  0.176946428571
 C2 0.207798 0.499992 0.85001  -0.114725071429
 C2 0.707801 0.5 0.8500  -0.114725071429
 C5 0.264417 0.499986 0.89077  0.234646428571
 C5 0.764419 0.500001 0.8907  0.234646428571
 C2 0.316339 0.499978 0.84240  -0.114725071429
 C2 0.816342 0.5 0.84240  -0.114725071429
 C4 0.189807 0.500024 0.24466  0.176946428571
 C4 0.689811 0.500007 0.24466  0.176946428571
 C4 0.29432 0.500012 0.23703  0.176946428571
 C4 0.794324 0.500008 0.23703  0.176946428571
 C2 0.292207 0.500014 0.14996  -0.114725071429
 C2 0.792211 0.500007 0.1499  -0.114725071429
 C5 0.235589 0.500021 0.109  0.234646428571
 C5 0.735592 0.500006 0.10920  0.234646428571
 C2 0.183666 0.500028 0.15756  -0.114725071429
 C2 0.683669 0.500007 0.15756  -0.114725071429
 C6 0.062085 0.999997 0.49962  0.0579314285714
 C6 0.56209 0.999997 0.49962  0.0579314285714
 C6 0.437917 2e-06 0.50034  0.0579314285714
 C6 0.93792 1e-06 0.50034  0.0579314285714
 Br1 0.148675 0.999993 0.49982  -0.171908571429
 Br1 0.64868 0.999992 0.49982  -0.171908571429
 Br1 0.351327 7e-06 0.50014  -0.171908571429
 Br1 0.85133 6e-06 0.50014  -0.171908571429
 N1 0.255884 0.499991 0.7164  -0.271998571429
 N1 0.755889 0.499999 0.7164  -0.271998571429
 N2 0.274195 0.499985 0.97915  -0.125013571429
 N2 0.774196 0.500002 0.97915  -0.125013571429
 N1 0.244119 0.500015 0.28351  -0.271998571429
 N1 0.744124 0.500008 0.28351  -0.271998571429
 N2 0.225813 0.500022 0.02081  -0.125013571429
 N2 0.725814 0.500006 0.02081  -0.125013571429
 O1 0.184959 0.590517 0.43041  -0.607453571429
 O1 0.684963 0.590516 0.43041  -0.607453571429
 O1 0.185206 0.590312 0.57295  -0.607453571429
 O1 0.685209 0.590313 0.57295  -0.607453571429
 O1 0.315045 0.590519 0.56955  -0.607453571429
 O1 0.815049 0.590517 0.56955  -0.607453571429
 O1 0.314799 0.590317 0.42701  -0.607453571429
 O1 0.814803 0.590317 0.42701  -0.607453571429
 O1 0.315045 0.409489 0.56955  -0.607453571429
 O1 0.815049 0.409491 0.56955  -0.607453571429
 O1 0.314798 0.409694 0.42701  -0.607453571429
 O1 0.814802 0.409694 0.42701  -0.607453571429
 O1 0.184959 0.409489 0.43041  -0.607453571429
 O1 0.684963 0.40949 0.43041  -0.607453571429
 O1 0.185205 0.40969 0.57295  -0.607453571429
 O1 0.685209 0.40969 0.57295  -0.607453571429
