#======================================================================

# CRYSTAL DATA

#----------------------------------------------------------------------

data_VESTA_phase_1


_pd_phase_name                         MOF
_cell_length_a                         23.26300
_cell_length_b                         15.81600
_cell_length_c                         15.99300
_cell_angle_alpha                      90.01400
_cell_angle_beta                       89.91600
_cell_angle_gamma                      90.00600
_symmetry_space_group_name_H-M         "P 1"
_symmetry_Int_Tables_number            1

loop_
_symmetry_equiv_pos_as_xyz
   "x, y, z"

loop_
   _atom_site_label
   _atom_site_fract_x
   _atom_site_fract_y
   _atom_site_fract_z
 _atom_site_charge
 Zn1 0.067442 0.999728 0.57978  0.901812797619
 Zn1 0.567302 0.999845 0.57994  0.901812797619
 Zn1 0.074148 0.999775 0.75697  0.901812797619
 Zn1 0.574814 0.000307 0.75724  0.901812797619
 Zn1 0.317504 7.5e-05 0.42069  0.901812797619
 Zn1 0.817528 6e-06 0.42000  0.901812797619
 Zn1 0.325073 0.999932 0.24350  0.901812797619
 Zn1 0.825043 0.999837 0.24279  0.901812797619
 H1 0.147425 0.74935 0.5568  0.106851451465
 H1 0.646416 0.751556 0.56036  0.106851451465
 H1 0.293586 0.708806 0.77891  0.106851451465
 H1 0.795361 0.708912 0.7781  0.106851451465
 H1 0.229506 0.834824 0.78128  0.106851451465
 H1 0.732393 0.836037 0.78222  0.106851451465
 H1 0.43047 0.626881 0.79474  0.106851451465
 H1 0.93233 0.62604 0.79055  0.106851451465
 H1 0.491391 0.756861 0.79109  0.106851451465
 H1 0.992621 0.7566 0.78678  0.106851451465
 H1 0.208773 0.620778 0.55593  0.106851451465
 H1 0.707218 0.622368 0.55728  0.106851451465
 H1 0.414 0.828998 0.55833  0.106851451465
 H1 0.910551 0.832345 0.55846  0.106851451465
 H1 0.349209 0.704125 0.56544  0.106851451465
 H1 0.846664 0.706518 0.56576  0.106851451465
 H1 0.147716 0.246531 0.56096  0.106851451465
 H1 0.648464 0.247901 0.5562  0.106851451465
 H1 0.29599 0.290311 0.7794  0.106851451465
 H1 0.795018 0.291365 0.77726  0.106851451465
 H1 0.233459 0.162754 0.78326  0.106851451465
 H1 0.73156 0.164679 0.78067  0.106851451465
 H1 0.433332 0.374135 0.79141  0.106851451465
 H1 0.931429 0.373931 0.79173  0.106851451465
 H1 0.493786 0.243805 0.78682  0.106851451465
 H1 0.992322 0.243892 0.78797  0.106851451465
 H1 0.208061 0.376133 0.55824  0.106851451465
 H1 0.709226 0.377144 0.55427  0.106851451465
 H1 0.411301 0.168624 0.5586  0.106851451465
 H1 0.914573 0.171551 0.55546  0.106851451465
 H1 0.347298 0.294221 0.56667  0.106851451465
 H1 0.849733 0.296375 0.56284  0.106851451465
 H1 0.169616 0.003577 0.29548  0.106851451465
 H1 0.669963 0.996309 0.29616  0.106851451465
 H1 0.482071 0.004725 0.43726  0.106851451465
 H1 0.98209 0.996512 0.43775  0.106851451465
 H1 0.16062 0.00271 0.45183  0.106851451465
 H1 0.660493 0.996285 0.45238  0.106851451465
 H1 0.484729 0.005958 0.28067  0.106851451465
 H1 0.984268 0.996416 0.28107  0.106851451465
 H1 0.464192 0.034913 0.03435  0.106851451465
 H1 0.964682 0.95506 0.03416  0.106851451465
 H1 0.478315 0.023678 0.8777  0.106851451465
 H1 0.978795 0.963033 0.87714  0.106851451465
 H1 0.150831 0.023504 0.90434  0.106851451465
 H1 0.654384 0.997662 0.90458  0.106851451465
 H1 0.143965 0.017223 0.06220  0.106851451465
 H1 0.647428 0.006642 0.06218  0.106851451465
 H1 0.426369 0.500028 0.69045  0.106851451465
 H1 0.926447 0.500904 0.68825  0.106851451465
 H1 0.215475 0.499094 0.65927  0.106851451465
 H1 0.715482 0.499552 0.65768  0.106851451465
 H1 0.397649 0.249372 0.44450  0.106851451465
 H1 0.897128 0.247664 0.43795  0.106851451465
 H1 0.046597 0.292396 0.22071  0.106851451465
 H1 0.544577 0.289864 0.22285  0.106851451465
 H1 0.481165 0.163294 0.22076  0.106851451465
 H1 0.983537 0.165518 0.21529  0.106851451465
 H1 0.183144 0.375128 0.20923  0.106851451465
 H1 0.68185 0.372957 0.20748  0.106851451465
 H1 0.244219 0.245611 0.21393  0.106851451465
 H1 0.742748 0.243062 0.21066  0.106851451465
 H1 0.458815 0.378144 0.44538  0.106851451465
 H1 0.957862 0.376874 0.44221  0.106851451465
 H1 0.16285 0.170935 0.44345  0.106851451465
 H1 0.66296 0.167929 0.4411  0.106851451465
 H1 0.098379 0.296167 0.43562  0.106851451465
 H1 0.598418 0.292991 0.43457  0.106851451465
 H1 0.397981 0.752577 0.44041  0.106851451465
 H1 0.89745 0.750556 0.44398  0.106851451465
 H1 0.045191 0.710635 0.22333  0.106851451465
 H1 0.546397 0.707774 0.22167  0.106851451465
 H1 0.483371 0.834614 0.21688  0.106851451465
 H1 0.981782 0.837268 0.22118  0.106851451465
 H1 0.183113 0.626478 0.20974  0.106851451465
 H1 0.683834 0.62405 0.2098  0.106851451465
 H1 0.243865 0.756511 0.21373  0.106851451465
 H1 0.744855 0.753636 0.21438  0.106851451465
 H1 0.458678 0.623374 0.44  0.106851451465
 H1 0.958479 0.621671 0.44479  0.106851451465
 H1 0.161964 0.832157 0.44260  0.106851451465
 H1 0.662713 0.829302 0.4430  0.106851451465
 H1 0.097575 0.707082 0.43499  0.106851451465
 H1 0.598272 0.704134 0.43523  0.106851451465
 H1 0.420247 0.996523 0.7043  0.106851451465
 H1 0.919715 0.005134 0.70370  0.106851451465
 H1 0.232343 0.998471 0.56381  0.106851451465
 H1 0.732118 0.998852 0.56246  0.106851451465
 H1 0.41091 0.998258 0.54819  0.106851451465
 H1 0.910651 0.004858 0.54744  0.106851451465
 H1 0.234814 0.998607 0.72028  0.106851451465
 H1 0.734328 0.997188 0.71895  0.106851451465
 H1 0.239335 0.106508 0.96641  0.106851451465
 H1 0.737127 0.894339 0.96594  0.106851451465
 H1 0.254442 0.097387 0.12335  0.106851451465
 H1 0.75269 0.903356 0.12275  0.106851451465
 H1 0.37675 0.909813 0.0963  0.106851451465
 H1 0.878609 0.085632 0.09474  0.106851451465
 H1 0.368311 0.912588 0.93838  0.106851451465
 H1 0.869908 0.082493 0.9368  0.106851451465
 H1 0.176902 0.501123 0.31204  0.106851451465
 H1 0.676879 0.498547 0.3110  0.106851451465
 H1 0.46596 0.499754 0.34270  0.106851451465
 H1 0.96581 0.500453 0.34148  0.106851451465
 C1 0.456471 0.801002 0.67460  -0.0188288690476
 C1 0.955234 0.802558 0.67261  -0.0188288690476
 C2 0.495063 0.876696 0.67038  0.656287797619
 C2 0.993543 0.878373 0.66858  0.656287797619
 C1 0.185086 0.800686 0.66822  -0.0188288690476
 C1 0.685779 0.80202 0.67090  -0.0188288690476
 C2 0.146688 0.876589 0.66941  0.656287797619
 C2 0.647674 0.878127 0.67326  0.656287797619
 C1 0.255593 0.655615 0.66748  -0.0188288690476
 C1 0.755518 0.656292 0.66777  -0.0188288690476
 C1 0.385733 0.656239 0.68013  -0.0188288690476
 C1 0.885467 0.657037 0.6781  -0.0188288690476
 C1 0.350958 0.577576 0.68017  -0.0188288690476
 C1 0.85091 0.57828 0.67837  -0.0188288690476
 C1 0.290581 0.577288 0.6691  -0.0188288690476
 C1 0.790478 0.577944 0.66799  -0.0188288690476
 C3 0.179498 0.73986 0.60523  -0.123739247835
 C3 0.679057 0.741491 0.60786  -0.123739247835
 C3 0.261487 0.717515 0.73010  -0.123739247835
 C3 0.762529 0.717952 0.73039  -0.123739247835
 C3 0.226099 0.788319 0.73126  -0.123739247835
 C3 0.727583 0.789195 0.73274  -0.123739247835
 C3 0.426326 0.671781 0.74331  -0.123739247835
 C3 0.927092 0.671773 0.74007  -0.123739247835
 C3 0.460489 0.74413 0.74152  -0.123739247835
 C3 0.960838 0.744472 0.73826  -0.123739247835
 C3 0.213781 0.667757 0.60534  -0.123739247835
 C3 0.712988 0.669043 0.60680  -0.123739247835
 C3 0.416498 0.785443 0.61090  -0.123739247835
 C3 0.914244 0.787868 0.6101  -0.123739247835
 C3 0.380806 0.715004 0.61457  -0.123739247835
 C3 0.879068 0.716899 0.6138  -0.123739247835
 C1 0.45618 0.198079 0.6726  -0.0188288690476
 C1 0.957125 0.19963 0.67168  -0.0188288690476
 C2 0.494325 0.122086 0.66832  0.656287797619
 C2 0.995515 0.1238 0.66771  0.656287797619
 C1 0.186891 0.196377 0.67177  -0.0188288690476
 C1 0.686649 0.197717 0.66770  -0.0188288690476
 C2 0.148714 0.12028 0.67421  0.656287797619
 C2 0.648357 0.121738 0.66988  0.656287797619
 C1 0.256211 0.342713 0.66901  -0.0188288690476
 C1 0.756454 0.343465 0.66578  -0.0188288690476
 C1 0.386188 0.343384 0.67918  -0.0188288690476
 C1 0.886456 0.344278 0.6773  -0.0188288690476
 C1 0.351265 0.421801 0.67998  -0.0188288690476
 C1 0.8514 0.422591 0.67781  -0.0188288690476
 C1 0.290823 0.421471 0.66956  -0.0188288690476
 C1 0.791007 0.422207 0.6670  -0.0188288690476
 C3 0.180213 0.2568 0.60864  -0.123739247835
 C3 0.680655 0.258029 0.60435  -0.123739247835
 C3 0.263286 0.281048 0.73160  -0.123739247835
 C3 0.762839 0.281988 0.72867  -0.123739247835
 C3 0.228559 0.209532 0.73375  -0.123739247835
 C3 0.727801 0.210829 0.73041  -0.123739247835
 C3 0.428039 0.328587 0.74075  -0.123739247835
 C3 0.927215 0.328952 0.74036  -0.123739247835
 C3 0.461906 0.256014 0.73847  -0.123739247835
 C3 0.961358 0.256623 0.73849  -0.123739247835
 C3 0.213897 0.329538 0.60779  -0.123739247835
 C3 0.71459 0.330501 0.60389  -0.123739247835
 C3 0.41507 0.212951 0.61041  -0.123739247835
 C3 0.917146 0.215143 0.60801  -0.123739247835
 C3 0.379806 0.283789 0.61460  -0.123739247835
 C3 0.881446 0.285537 0.61181  -0.123739247835
 C4 0.053293 0.986708 0.05904  0.239017797619
 C4 0.554748 0.019232 0.0592  0.239017797619
 C3 0.127744 0.001694 0.32577  -0.123739247835
 C3 0.628008 0.998658 0.32616  -0.123739247835
 C5 0.022703 0.997697 0.40389  0.185331547619
 C5 0.522777 0.003413 0.40368  0.185331547619
 C5 0.122643 0.00119 0.41228  0.185331547619
 C5 0.622643 0.998637 0.41263  0.185331547619
 C4 0.077759 0.999133 0.27741  0.239017797619
 C4 0.578206 0.002528 0.27750  0.239017797619
 C3 0.023924 0.997262 0.31718  -0.123739247835
 C3 0.524275 0.00458 0.31696  -0.123739247835
 C3 0.006278 0.970782 0.00687  -0.123739247835
 C3 0.506676 0.025744 0.00712  -0.123739247835
 C5 0.013841 0.975353 0.92066  0.185331547619
 C5 0.514306 0.019478 0.92106  0.185331547619
 C5 0.110604 0.008952 0.93630  0.185331547619
 C5 0.613221 0.004857 0.9364  0.185331547619
 C3 0.106748 0.005736 0.0226  -0.123739247835
 C3 0.609359 0.009794 0.02285  -0.123739247835
 C3 0.379575 0.499808 0.6859  -0.123739247835
 C3 0.879649 0.500607 0.68382  -0.123739247835
 C3 0.262254 0.499245 0.66384  -0.123739247835
 C3 0.762267 0.499899 0.66208  -0.123739247835
 C1 0.207054 0.199954 0.3286  -0.0188288690476
 C1 0.706728 0.197517 0.32608  -0.0188288690476
 C2 0.245184 0.123984 0.33299  0.656287797619
 C2 0.74546 0.12209 0.33007  0.656287797619
 C1 0.435836 0.197988 0.33331  -0.0188288690476
 C1 0.936715 0.198187 0.32699  -0.0188288690476
 C2 0.397578 0.122042 0.3321  0.656287797619
 C2 0.898572 0.122059 0.32388  0.656287797619
 C1 0.006514 0.344048 0.33150  -0.0188288690476
 C1 0.506003 0.343224 0.33397  -0.0188288690476
 C1 0.1366 0.344712 0.32222  -0.0188288690476
 C1 0.636117 0.342362 0.32114  -0.0188288690476
 C1 0.101663 0.423082 0.32157  -0.0188288690476
 C1 0.601414 0.421064 0.32139  -0.0188288690476
 C1 0.041186 0.422737 0.33159  -0.0188288690476
 C1 0.541018 0.421494 0.33247  -0.0188288690476
 C3 0.429875 0.258875 0.39619  -0.123739247835
 C3 0.9299 0.258163 0.39058  -0.123739247835
 C3 0.013721 0.282888 0.26841  -0.123739247835
 C3 0.512246 0.281234 0.27149  -0.123739247835
 C3 0.477053 0.210212 0.27032  -0.123739247835
 C3 0.978744 0.21165 0.26544  -0.123739247835
 C3 0.178209 0.329821 0.26017  -0.123739247835
 C3 0.677284 0.327552 0.25841  -0.123739247835
 C3 0.212318 0.257515 0.26248  -0.123739247835
 C3 0.711435 0.255233 0.25993  -0.123739247835
 C3 0.464015 0.331116 0.3960  -0.123739247835
 C3 0.963818 0.330634 0.39232  -0.123739247835
 C3 0.166194 0.215014 0.39139  -0.123739247835
 C3 0.666083 0.212195 0.38923  -0.123739247835
 C3 0.130679 0.285559 0.38728  -0.123739247835
 C3 0.630498 0.282741 0.3858  -0.123739247835
 C1 0.206756 0.802377 0.32828  -0.0188288690476
 C1 0.70728 0.799838 0.32863  -0.0188288690476
 C2 0.245298 0.877992 0.33250  0.656287797619
 C2 0.745228 0.875995 0.33287  0.656287797619
 C1 0.436975 0.802003 0.32895  -0.0188288690476
 C1 0.936044 0.802252 0.33325  -0.0188288690476
 C2 0.398659 0.877977 0.32583  0.656287797619
 C2 0.897651 0.878053 0.33201  0.656287797619
 C1 0.006117 0.656892 0.33388  -0.0188288690476
 C1 0.506772 0.65608 0.3327  -0.0188288690476
 C1 0.136287 0.657423 0.32239  -0.0188288690476
 C1 0.636852 0.655049 0.32231  -0.0188288690476
 C1 0.1015 0.578819 0.32198  -0.0188288690476
 C1 0.601802 0.576804 0.32167  -0.0188288690476
 C1 0.041045 0.578532 0.3323  -0.0188288690476
 C1 0.541368 0.577297 0.33233  -0.0188288690476
 C3 0.430492 0.74208 0.39265  -0.123739247835
 C3 0.929818 0.74116 0.39585  -0.123739247835
 C3 0.012657 0.719113 0.27171  -0.123739247835
 C3 0.513726 0.717265 0.26967  -0.123739247835
 C3 0.478768 0.788499 0.26705  -0.123739247835
 C3 0.977485 0.790179 0.27053  -0.123739247835
 C3 0.178047 0.672039 0.26045  -0.123739247835
 C3 0.678703 0.669615 0.26052  -0.123739247835
 C3 0.212116 0.744421 0.26242  -0.123739247835
 C3 0.712795 0.741949 0.26275  -0.123739247835
 C3 0.464415 0.669589 0.39404  -0.123739247835
 C3 0.963899 0.668867 0.39567  -0.123739247835
 C3 0.165601 0.787826 0.39076  -0.123739247835
 C3 0.666241 0.785047 0.39117  -0.123739247835
 C3 0.130091 0.717209 0.38686  -0.123739247835
 C3 0.630737 0.714496 0.38709  -0.123739247835
 C4 0.303501 0.010928 0.9413  0.239017797619
 C4 0.803153 0.987075 0.94037  0.239017797619
 C3 0.378279 0.99748 0.67449  -0.123739247835
 C3 0.877826 0.003211 0.67366  -0.123739247835
 C5 0.273033 0.99865 0.59728  0.185331547619
 C5 0.772735 0.999651 0.59610  0.185331547619
 C5 0.372979 0.998258 0.58  0.185331547619
 C5 0.872685 0.003304 0.58715  0.185331547619
 C4 0.32839 0.998589 0.72323  0.239017797619
 C4 0.827883 3.2e-05 0.72221  0.239017797619
 C3 0.274451 0.999007 0.68400  -0.123739247835
 C3 0.774012 0.998417 0.68280  -0.123739247835
 C3 0.270233 0.062611 0.99347  -0.123739247835
 C3 0.768995 0.936928 0.9927  -0.123739247835
 C5 0.278337 0.05805 0.07938  0.185331547619
 C5 0.777311 0.94152 0.07863  0.185331547619
 C5 0.347486 0.952752 0.06419  0.185331547619
 C5 0.848481 0.043767 0.0628  0.185331547619
 C3 0.342733 0.954408 0.97769  -0.123739247835
 C3 0.843578 0.041965 0.97640  -0.123739247835
 C3 0.130082 0.501021 0.31618  -0.123739247835
 C3 0.63008 0.498794 0.31566  -0.123739247835
 C3 0.012635 0.50053 0.33730  -0.123739247835
 C3 0.512742 0.499557 0.33803  -0.123739247835
 N1 0.07109 0.999564 0.45085  -0.280692202381
 N1 0.570994 0.000562 0.45095  -0.280692202381
 N2 0.086676 0.00125 0.18996  -0.119192202381
 N2 0.587265 0.000795 0.19004  -0.119192202381
 N1 0.065047 0.994372 0.88592  -0.280692202381
 N1 0.566604 0.008749 0.88627  -0.280692202381
 N2 0.042699 0.981872 0.146  -0.119192202381
 N2 0.544106 0.023842 0.14674  -0.119192202381
 N1 0.32134 0.998587 0.54990  -0.280692202381
 N1 0.821114 0.001699 0.54892  -0.280692202381
 N2 0.337491 0.997152 0.81076  -0.119192202381
 N2 0.836985 0.000628 0.80973  -0.119192202381
 N1 0.316268 0.00406 0.11429  -0.280692202381
 N1 0.816294 0.994088 0.11328  -0.280692202381
 N2 0.293609 0.017249 0.85417  -0.119192202381
 N2 0.792954 0.981269 0.85317  -0.119192202381
 O1 0.125525 0.901005 0.59984  -0.584787202381
 O1 0.627826 0.904866 0.60371  -0.584787202381
 O1 0.002395 0.911236 0.59710  -0.584787202381
 O1 0.504894 0.907707 0.59828  -0.584787202381
 O1 0.138067 0.911064 0.74035  -0.584787202381
 O1 0.637935 0.910278 0.7450  -0.584787202381
 O1 0.014521 0.904505 0.73775  -0.584787202381
 O1 0.514885 0.904535 0.7395  -0.584787202381
 O1 0.129692 0.092422 0.60455  -0.584787202381
 O1 0.627303 0.096185 0.60060  -0.584787202381
 O1 0.005475 0.092545 0.59572  -0.584787202381
 O1 0.502861 0.089145 0.5967  -0.584787202381
 O1 0.137866 0.089505 0.7462  -0.584787202381
 O1 0.63949 0.088649 0.74138  -0.584787202381
 O1 0.014956 0.095811 0.73702  -0.584787202381
 O1 0.515312 0.095721 0.73732  -0.584787202381
 O1 0.377766 0.095823 0.40207  -0.584787202381
 O1 0.877585 0.095763 0.39294  -0.584787202381
 O1 0.254706 0.092479 0.40476  -0.584787202381
 O1 0.753872 0.089099 0.4016  -0.584787202381
 O1 0.387641 0.089393 0.26078  -0.584787202381
 O1 0.889783 0.089419 0.25202  -0.584787202381
 O1 0.265011 0.095961 0.2636  -0.584787202381
 O1 0.766989 0.096281 0.26113  -0.584787202381
 O1 0.377571 0.904216 0.39488  -0.584787202381
 O1 0.87781 0.9043 0.40189  -0.584787202381
 O1 0.25335 0.911216 0.40411  -0.584787202381
 O1 0.7547 0.907636 0.40463  -0.584787202381
 O1 0.38989 0.910563 0.25394  -0.584787202381
 O1 0.887736 0.910657 0.26063  -0.584787202381
 O1 0.267185 0.903626 0.26376  -0.584787202381
 O1 0.765038 0.903981 0.26357  -0.584787202381
