#======================================================================

# CRYSTAL DATA

#----------------------------------------------------------------------

data_VESTA_phase_1


_pd_phase_name                         MOF
_cell_length_a                         19.79100
_cell_length_b                         19.79200
_cell_length_c                         21.89200
_cell_angle_alpha                      89.99700
_cell_angle_beta                       90.00200
_cell_angle_gamma                      119.95300
_symmetry_space_group_name_H-M         "P 1"
_symmetry_Int_Tables_number            1

loop_
_symmetry_equiv_pos_as_xyz
   "x, y, z"

loop_
   _atom_site_label
   _atom_site_fract_x
   _atom_site_fract_y
   _atom_site_fract_z
 _atom_site_charge
 Cd1 0.454689 0.045462 0.75003  0.777664333333
 Cd1 0.454685 0.545449 0.75003  0.777664333333
 Cd1 0.954687 0.045457 0.75003  0.777664333333
 Cd1 0.954687 0.545449 0.75003  0.777664333333
 Cd1 0.091129 0.045644 0.41671  0.777664333333
 Cd1 0.091126 0.545633 0.41671  0.777664333333
 Cd1 0.591127 0.045637 0.41671  0.777664333333
 Cd1 0.591126 0.545627 0.41671  0.777664333333
 Cd1 0.454332 0.408895 0.08331  0.777664333333
 Cd1 0.45433 0.908884 0.08331  0.777664333333
 Cd1 0.95433 0.40889 0.08331  0.777664333333
 Cd1 0.954329 0.908881 0.08331  0.777664333333
 Cd1 0.045451 0.45468 0.2499  0.777664333333
 Cd1 0.045451 0.954673 0.2499  0.777664333333
 Cd1 0.545453 0.454681 0.24997  0.777664333333
 Cd1 0.545448 0.954668 0.24997  0.777664333333
 Cd1 0.40892 0.454322 0.91670  0.777664333333
 Cd1 0.408919 0.954313 0.91670  0.777664333333
 Cd1 0.908921 0.454319 0.91670  0.777664333333
 Cd1 0.908918 0.954308 0.91670  0.777664333333
 Cd1 0.045638 0.091163 0.5833  0.777664333333
 Cd1 0.045637 0.591155 0.58330  0.777664333333
 Cd1 0.545637 0.091163 0.58330  0.777664333333
 Cd1 0.545635 0.591151 0.58330  0.777664333333
 H1 0.123165 0.164187 0.81628  0.1023385
 H1 0.123166 0.664176 0.81628  0.1023385
 H1 0.623167 0.164187 0.81628  0.1023385
 H1 0.62316 0.664176 0.81628  0.1023385
 H1 0.208899 0.250528 0.6345  0.1023385
 H1 0.208896 0.750523 0.63456  0.1023385
 H1 0.708899 0.25053 0.63456  0.1023385
 H1 0.708899 0.750514 0.6345  0.1023385
 H1 0.040777 0.377001 0.48298  0.1023385
 H1 0.040769 0.876988 0.48298  0.1023385
 H1 0.540769 0.376991 0.48298  0.1023385
 H1 0.540767 0.87698 0.48298  0.1023385
 H1 0.041082 0.291111 0.30125  0.1023385
 H1 0.041089 0.791106 0.3012  0.1023385
 H1 0.541093 0.291113 0.30124  0.1023385
 H1 0.541085 0.791099 0.30124  0.1023385
 H1 0.335731 0.458984 0.14959  0.1023385
 H1 0.335726 0.958968 0.149  0.1023385
 H1 0.835728 0.458979 0.14959  0.1023385
 H1 0.835724 0.958966 0.149  0.1023385
 H1 0.249718 0.459006 0.96786  0.1023385
 H1 0.249724 0.959011 0.96786  0.1023385
 H1 0.74972 0.459007 0.9678  0.1023385
 H1 0.749719 0.958999 0.96786  0.1023385
 H1 0.377091 0.335874 0.31634  0.1023385
 H1 0.377084 0.835861 0.31634  0.1023385
 H1 0.877085 0.335873 0.31634  0.1023385
 H1 0.877085 0.835865 0.31634  0.1023385
 H1 0.291045 0.249657 0.13466  0.1023385
 H1 0.291044 0.749642 0.13466  0.1023385
 H1 0.791047 0.249647 0.13466  0.1023385
 H1 0.791047 0.749638 0.1346  0.1023385
 H1 0.459109 0.122857 0.98309  0.1023385
 H1 0.459099 0.622843 0.98309  0.1023385
 H1 0.95911 0.122854 0.98309  0.1023385
 H1 0.959102 0.62284 0.98309  0.1023385
 H1 0.459271 0.209072 0.80138  0.1023385
 H1 0.459266 0.709059 0.80138  0.1023385
 H1 0.959263 0.209064 0.80138  0.1023385
 H1 0.959269 0.709058 0.80138  0.1023385
 H1 0.164291 0.041246 0.64968  0.1023385
 H1 0.164289 0.541238 0.64968  0.1023385
 H1 0.664295 0.041254 0.6496  0.1023385
 H1 0.664291 0.541241 0.6496  0.1023385
 H1 0.250214 0.040843 0.46798  0.1023385
 H1 0.250212 0.540833 0.46798  0.1023385
 H1 0.750202 0.040821 0.46798  0.1023385
 H1 0.750203 0.540815 0.46798  0.1023385
 H1 0.458982 0.335697 0.85042  0.1023385
 H1 0.458966 0.835679 0.8504  0.1023385
 H1 0.958976 0.33569 0.85042  0.1023385
 H1 0.958972 0.835678 0.85042  0.1023385
 H1 0.459053 0.24972 0.0321  0.1023385
 H1 0.459057 0.749714 0.03215  0.1023385
 H1 0.959054 0.249718 0.03216  0.1023385
 H1 0.959056 0.74971 0.03216  0.1023385
 H1 0.164178 0.123172 0.18373  0.1023385
 H1 0.164178 0.623155 0.18373  0.1023385
 H1 0.664172 0.123171 0.18373  0.1023385
 H1 0.664174 0.623162 0.18373  0.1023385
 H1 0.250484 0.208901 0.36545  0.1023385
 H1 0.250477 0.708891 0.36545  0.1023385
 H1 0.75049 0.208889 0.36545  0.1023385
 H1 0.750488 0.708881 0.36545  0.1023385
 H1 0.377 0.040832 0.51703  0.1023385
 H1 0.377 0.540826 0.51703  0.1023385
 H1 0.876999 0.040833 0.51703  0.1023385
 H1 0.876996 0.54082 0.51703  0.1023385
 H1 0.291075 0.041064 0.69877  0.1023385
 H1 0.291069 0.541049 0.69877  0.1023385
 H1 0.791068 0.04105 0.69877  0.1023385
 H1 0.79107 0.541047 0.69877  0.1023385
 H1 0.041262 0.164338 0.35033  0.1023385
 H1 0.04126 0.664328 0.35033  0.1023385
 H1 0.541265 0.164333 0.35033  0.1023385
 H1 0.541258 0.66432 0.35033  0.1023385
 H1 0.040792 0.250218 0.53204  0.1023385
 H1 0.04079 0.750208 0.53204  0.1023385
 H1 0.54079 0.250213 0.53203  0.1023385
 H1 0.540791 0.750204 0.53203  0.1023385
 H1 0.335888 0.377085 0.68367  0.1023385
 H1 0.335892 0.877074 0.68367  0.1023385
 H1 0.835891 0.377085 0.68367  0.1023385
 H1 0.835888 0.877071 0.68367  0.1023385
 H1 0.249679 0.291053 0.86535  0.1023385
 H1 0.249671 0.791049 0.86535  0.1023385
 H1 0.749679 0.291052 0.86535  0.1023385
 H1 0.749674 0.791041 0.86535  0.1023385
 H1 0.122859 0.45906 0.01692  0.1023385
 H1 0.122856 0.959047 0.01692  0.1023385
 H1 0.622856 0.459054 0.01692  0.1023385
 H1 0.622856 0.959049 0.01692  0.1023385
 H1 0.209108 0.459295 0.19863  0.1023385
 H1 0.209112 0.959298 0.19863  0.1023385
 H1 0.709112 0.459304 0.19863  0.1023385
 H1 0.709106 0.959286 0.19863  0.1023385
 C1 0.196868 0.235686 0.73689  -0.0674581666667
 C1 0.196867 0.735679 0.73689  -0.0674581666667
 C1 0.69687 0.235687 0.73689  -0.0674581666667
 C1 0.696866 0.735674 0.73689  -0.0674581666667
 C2 0.133812 0.174351 0.7675  0.0013635
 C2 0.133812 0.674342 0.76758  0.0013635
 C2 0.633813 0.174352 0.76758  0.0013635
 C2 0.633808 0.67434 0.7675  0.0013635
 C2 0.176908 0.218788 0.67495  0.0013635
 C2 0.176906 0.718782 0.67495  0.0013635
 C2 0.676909 0.21879 0.6749  0.0013635
 C2 0.676907 0.718776 0.67495  0.0013635
 C1 0.038409 0.303188 0.40358  -0.0674581666667
 C1 0.038408 0.803178 0.40358  -0.0674581666667
 C1 0.53841 0.303184 0.40358  -0.0674581666667
 C1 0.538406 0.803171 0.40358  -0.0674581666667
 C2 0.040227 0.366324 0.43428  0.0013635
 C2 0.040222 0.866312 0.43428  0.0013635
 C2 0.540223 0.366317 0.43428  0.0013635
 C2 0.540219 0.866305 0.43428  0.0013635
 C2 0.041467 0.323171 0.34164  0.0013635
 C2 0.041471 0.823164 0.34164  0.0013635
 C2 0.541474 0.32317 0.3416  0.0013635
 C2 0.541467 0.823156 0.3416  0.0013635
 C1 0.264425 0.461599 0.07018  -0.0674581666667
 C1 0.264426 0.961593 0.07018  -0.0674581666667
 C1 0.764425 0.461598 0.0701  -0.0674581666667
 C1 0.764423 0.961587 0.07018  -0.0674581666667
 C2 0.325644 0.459589 0.10089  0.0013635
 C2 0.325642 0.959578 0.10089  0.0013635
 C2 0.825642 0.459585 0.10089  0.0013635
 C2 0.82564 0.959574 0.10089  0.0013635
 C2 0.281361 0.458549 0.00824  0.0013635
 C2 0.281365 0.958548 0.00824  0.0013635
 C2 0.781362 0.458548 0.0082  0.0013635
 C2 0.781361 0.958539 0.00824  0.0013635
 C1 0.30324 0.264436 0.23699  -0.0674581666667
 C1 0.303236 0.764422 0.23698  -0.0674581666667
 C1 0.803238 0.26443 0.23699  -0.0674581666667
 C1 0.803238 0.764422 0.23699  -0.0674581666667
 C2 0.366363 0.325735 0.26765  0.0013635
 C2 0.366358 0.825722 0.26765  0.0013635
 C2 0.866359 0.325732 0.26765  0.0013635
 C2 0.866359 0.825723 0.26765  0.0013635
 C2 0.323108 0.281364 0.17503  0.0013635
 C2 0.323106 0.78135 0.17503  0.0013635
 C2 0.823108 0.281357 0.17503  0.0013635
 C2 0.823108 0.781348 0.17503  0.0013635
 C1 0.461693 0.196819 0.9037  -0.0674581666667
 C1 0.461685 0.696806 0.90371  -0.0674581666667
 C1 0.96169 0.196814 0.90372  -0.0674581666667
 C1 0.961689 0.696804 0.90372  -0.0674581666667
 C2 0.459774 0.133618 0.934  0.0013635
 C2 0.459766 0.633604 0.93439  0.0013635
 C2 0.959773 0.133614 0.93440  0.0013635
 C2 0.959769 0.633602 0.93440  0.0013635
 C2 0.458775 0.176937 0.84176  0.0013635
 C2 0.458769 0.676924 0.84176  0.0013635
 C2 0.958769 0.176931 0.84176  0.0013635
 C2 0.958772 0.676923 0.8417  0.0013635
 C1 0.235563 0.03847 0.57031  -0.0674581666667
 C1 0.235561 0.538461 0.57031  -0.0674581666667
 C1 0.735559 0.038463 0.57031  -0.0674581666667
 C1 0.735558 0.538454 0.57031  -0.0674581666667
 C2 0.174359 0.040543 0.60099  0.0013635
 C2 0.174357 0.540535 0.60099  0.0013635
 C2 0.674359 0.040544 0.60099  0.0013635
 C2 0.674356 0.540533 0.60099  0.0013635
 C2 0.2186 0.0414 0.50836  0.0013635
 C2 0.218598 0.54139 0.50836  0.0013635
 C2 0.718592 0.041385 0.50836  0.0013635
 C2 0.718592 0.541378 0.50836  0.0013635
 C1 0.461621 0.264406 0.92984  -0.0674581666667
 C1 0.461614 0.764393 0.9298  -0.0674581666667
 C1 0.961618 0.264401 0.92984  -0.0674581666667
 C1 0.961617 0.764391 0.92984  -0.0674581666667
 C2 0.45956 0.325596 0.89912  0.0013635
 C2 0.459549 0.825581 0.89912  0.0013635
 C2 0.959556 0.32559 0.89912  0.0013635
 C2 0.959553 0.825579 0.89912  0.0013635
 C2 0.45858 0.281345 0.9917  0.0013635
 C2 0.458579 0.781336 0.99177  0.0013635
 C2 0.95858 0.281342 0.99178  0.0013635
 C2 0.95858 0.781333 0.99178  0.0013635
 C1 0.235663 0.196874 0.2631  -0.0674581666667
 C1 0.23566 0.69686 0.26312  -0.0674581666667
 C1 0.735663 0.196868 0.26313  -0.0674581666667
 C1 0.735663 0.696859 0.26313  -0.0674581666667
 C2 0.174352 0.133802 0.23243  0.0013635
 C2 0.17435 0.633786 0.2324  0.0013635
 C2 0.674349 0.133798 0.23243  0.0013635
 C2 0.674349 0.633789 0.23243  0.0013635
 C2 0.218747 0.176918 0.32507  0.0013635
 C2 0.218741 0.676906 0.3250  0.0013635
 C2 0.71875 0.176908 0.32507  0.0013635
 C2 0.718749 0.6769 0.32507  0.0013635
 C1 0.303162 0.038417 0.59644  -0.0674581666667
 C1 0.30316 0.538407 0.59644  -0.0674581666667
 C1 0.803158 0.03841 0.59644  -0.0674581666667
 C1 0.803158 0.538402 0.59644  -0.0674581666667
 C2 0.366329 0.040294 0.56573  0.0013635
 C2 0.366328 0.540286 0.56573  0.0013635
 C2 0.866327 0.040292 0.56573  0.0013635
 C2 0.866325 0.540281 0.56573  0.0013635
 C2 0.323138 0.041455 0.65838  0.0013635
 C2 0.323134 0.541442 0.65838  0.0013635
 C2 0.823133 0.041445 0.65838  0.0013635
 C2 0.823133 0.541439 0.65838  0.0013635
 C1 0.038442 0.235582 0.42971  -0.0674581666667
 C1 0.03844 0.735572 0.42971  -0.0674581666667
 C1 0.538443 0.235577 0.42970  -0.0674581666667
 C1 0.538439 0.735566 0.4297  -0.0674581666667
 C2 0.040579 0.174415 0.39903  0.0013635
 C2 0.040577 0.674404 0.39903  0.0013635
 C2 0.540581 0.17441 0.39902  0.0013635
 C2 0.540576 0.674398 0.3990  0.0013635
 C2 0.041349 0.218605 0.49166  0.0013635
 C2 0.041347 0.718595 0.49166  0.0013635
 C2 0.541348 0.218601 0.49166  0.0013635
 C2 0.541347 0.718591 0.49166  0.0013635
 C1 0.264452 0.30324 0.76303  -0.0674581666667
 C1 0.26445 0.803233 0.76303  -0.0674581666667
 C1 0.764453 0.30324 0.76303  -0.0674581666667
 C1 0.764449 0.803228 0.76303  -0.0674581666667
 C2 0.325733 0.366375 0.73236  0.0013635
 C2 0.325734 0.866366 0.73236  0.0013635
 C2 0.825736 0.366376 0.73236  0.0013635
 C2 0.825732 0.866362 0.73236  0.0013635
 C2 0.281392 0.323105 0.82498  0.0013635
 C2 0.281387 0.823099 0.82498  0.0013635
 C2 0.781392 0.323104 0.82498  0.0013635
 C2 0.781388 0.823093 0.82498  0.0013635
 C1 0.196845 0.461691 0.09630  -0.0674581666667
 C1 0.196846 0.961686 0.09630  -0.0674581666667
 C1 0.696845 0.461692 0.09630  -0.0674581666667
 C1 0.696842 0.96168 0.09630  -0.0674581666667
 C2 0.133613 0.459713 0.06562  0.0013635
 C2 0.133612 0.959703 0.06562  0.0013635
 C2 0.633612 0.459711 0.06562  0.0013635
 C2 0.633611 0.959702 0.06562  0.0013635
 C2 0.176969 0.458792 0.15825  0.0013635
 C2 0.176971 0.958791 0.15825  0.0013635
 C2 0.676971 0.458797 0.15825  0.0013635
 C2 0.676967 0.958782 0.15825  0.0013635
 N1 0.080436 0.124743 0.72696  -0.264389
 N1 0.080436 0.624734 0.72696  -0.264389
 N1 0.580437 0.124744 0.72696  -0.264389
 N1 0.580433 0.624732 0.72696  -0.264389
 N1 0.107064 0.15292 0.66934  -0.264389
 N1 0.107062 0.652913 0.66934  -0.264389
 N1 0.607064 0.152922 0.66934  -0.264389
 N1 0.607062 0.652909 0.66934  -0.264389
 N1 0.04411 0.419792 0.39367  -0.264389
 N1 0.044107 0.919782 0.39367  -0.264389
 N1 0.544108 0.419787 0.39366  -0.264389
 N1 0.544104 0.919775 0.39366  -0.264389
 N1 0.04556 0.393111 0.33604  -0.264389
 N1 0.045562 0.893103 0.33604  -0.264389
 N1 0.545565 0.393109 0.33604  -0.264389
 N1 0.545558 0.893096 0.33604  -0.264389
 N1 0.375213 0.455654 0.0602  -0.264389
 N1 0.375211 0.955643 0.06029  -0.264389
 N1 0.875211 0.455649 0.0602  -0.264389
 N1 0.875208 0.955638 0.06029  -0.264389
 N1 0.347135 0.454299 0.  -0.264389
 N1 0.347136 0.954296 0.  -0.264389
 N1 0.847134 0.454297 0.  -0.264389
 N1 0.847133 0.954288 0.  -0.264389
 N1 0.419687 0.375346 0.22700  -0.264389
 N1 0.419683 0.875334 0.22  -0.264389
 N1 0.919683 0.375344 0.22700  -0.264389
 N1 0.919683 0.875335 0.22700  -0.264389
 N1 0.39296 0.347214 0.16939  -0.264389
 N1 0.392957 0.847201 0.16939  -0.264389
 N1 0.892958 0.347209 0.16939  -0.264389
 N1 0.892958 0.8472 0.16939  -0.264389
 N1 0.455959 0.080206 0.8937  -0.264389
 N1 0.455951 0.580193 0.8937  -0.264389
 N1 0.955957 0.080201 0.89376  -0.264389
 N1 0.955954 0.580191 0.89376  -0.264389
 N1 0.454667 0.106994 0.83614  -0.264389
 N1 0.454661 0.606981 0.83614  -0.264389
 N1 0.954662 0.106988 0.83614  -0.264389
 N1 0.954664 0.60698 0.83614  -0.264389
 N1 0.124779 0.044409 0.56035  -0.264389
 N1 0.124778 0.5444 0.56035  -0.264389
 N1 0.624778 0.044407 0.56035  -0.264389
 N1 0.624776 0.544396 0.56035  -0.264389
 N1 0.152817 0.045626 0.50273  -0.264389
 N1 0.152815 0.545617 0.50273  -0.264389
 N1 0.65281 0.045614 0.50273  -0.264389
 N1 0.652809 0.545605 0.50273  -0.264389
 N1 0.455662 0.375181 0.93973  -0.264389
 N1 0.455655 0.875168 0.9397  -0.264389
 N1 0.95566 0.375176 0.93973  -0.264389
 N1 0.955657 0.875166 0.93973  -0.264389
 N1 0.454313 0.347116 0.99734  -0.264389
 N1 0.454313 0.847107 0.99734  -0.264389
 N1 0.954314 0.347113 0.99734  -0.264389
 N1 0.954313 0.847103 0.99734  -0.264389
 N1 0.12471 0.080447 0.27305  -0.264389
 N1 0.124707 0.580432 0.27305  -0.264389
 N1 0.624709 0.080441 0.27305  -0.264389
 N1 0.624709 0.580433 0.27305  -0.264389
 N1 0.152891 0.107062 0.33067  -0.264389
 N1 0.152886 0.607049 0.3306  -0.264389
 N1 0.652893 0.107052 0.33067  -0.264389
 N1 0.652892 0.607044 0.33067  -0.264389
 N1 0.419782 0.044136 0.60635  -0.264389
 N1 0.41978 0.544126 0.60635  -0.264389
 N1 0.91978 0.044133 0.60635  -0.264389
 N1 0.919779 0.544124 0.60635  -0.264389
 N1 0.3931 0.045587 0.66397  -0.264389
 N1 0.393096 0.545574 0.66397  -0.264389
 N1 0.893097 0.045579 0.66397  -0.264389
 N1 0.893097 0.545574 0.66397  -0.264389
 N1 0.044397 0.12481 0.43967  -0.264389
 N1 0.044394 0.6248 0.43967  -0.264389
 N1 0.544398 0.124806 0.4396  -0.264389
 N1 0.544394 0.624795 0.43967  -0.264389
 N1 0.045622 0.15285 0.49729  -0.264389
 N1 0.04562 0.65284 0.4972  -0.264389
 N1 0.545621 0.152845 0.49728  -0.264389
 N1 0.54562 0.652835 0.49728  -0.264389
 N1 0.375377 0.419677 0.77301  -0.264389
 N1 0.375377 0.919668 0.77301  -0.264389
 N1 0.875379 0.419676 0.77301  -0.264389
 N1 0.875376 0.919663 0.77301  -0.264389
 N1 0.347232 0.392966 0.83062  -0.264389
 N1 0.347228 0.892959 0.83062  -0.264389
 N1 0.847233 0.392965 0.83062  -0.264389
 N1 0.847229 0.892953 0.83062  -0.264389
 N1 0.080215 0.455936 0.10626  -0.264389
 N1 0.080215 0.955928 0.10626  -0.264389
 N1 0.580216 0.455937 0.1062  -0.264389
 N1 0.580213 0.955926 0.10626  -0.264389
 N1 0.107004 0.454645 0.16387  -0.264389
 N1 0.107005 0.954642 0.16387  -0.264389
 N1 0.607006 0.454651 0.16387  -0.264389
 N1 0.607002 0.954636 0.16387  -0.264389
