#======================================================================

# CRYSTAL DATA

#----------------------------------------------------------------------

data_VESTA_phase_1


_pd_phase_name                         MOF
_cell_length_a                         13.31500
_cell_length_b                         14.53700
_cell_length_c                         14.53700
_cell_angle_alpha                      89.98000
_cell_angle_beta                       90.00100
_cell_angle_gamma                      90.01600
_symmetry_space_group_name_H-M         "P 1"
_symmetry_Int_Tables_number            1

loop_
_symmetry_equiv_pos_as_xyz
   "x, y, z"

loop_
   _atom_site_label
   _atom_site_fract_x
   _atom_site_fract_y
   _atom_site_fract_z
 _atom_site_charge
 Zn1 0.999858 0.500002 0.99997  0.875287659574
 Zn1 0.499637 0.0 0.50004  0.875287659574
 Zn1 0.999761 1e-06 0.50004  0.875287659574
 Zn1 0.499749 0.500007 0.99997  0.875287659574
 H1 0.983412 0.191618 0.19570  0.131701409574
 H1 0.86095 0.093564 0.28367  0.131701409574
 H1 0.617482 0.259256 0.17671  0.131701409574
 H1 0.739766 0.352687 0.08925  0.131701409574
 H1 0.566947 0.070595 0.16768  0.131701409574
 H1 0.77724 0.084199 0.46590  0.131701409574
 H1 0.757727 0.196686 0.42284  0.131701409574
 H1 0.673321 0.150924 0.50722  0.131701409574
 H1 0.98341 0.808321 0.80432  0.131701409574
 H1 0.861029 0.906401 0.71636  0.131701409574
 H1 0.61743 0.740741 0.82331  0.131701409574
 H1 0.739635 0.647274 0.91074  0.131701409574
 H1 0.567062 0.929387 0.83239  0.131701409574
 H1 0.777247 0.915876 0.5341  0.131701409574
 H1 0.757696 0.803372 0.57715  0.131701409574
 H1 0.673285 0.849147 0.49281  0.131701409574
 H1 0.483583 0.691496 0.30492  0.131701409574
 H1 0.361417 0.593135 0.21697  0.131701409574
 H1 0.117552 0.758983 0.32278  0.131701409574
 H1 0.239524 0.852788 0.41014  0.131701409574
 H1 0.067764 0.569487 0.33244  0.131701409574
 H1 0.277308 0.584492 0.0338  0.131701409574
 H1 0.257868 0.696748 0.07743  0.131701409574
 H1 0.173269 0.651382 0.99301  0.131701409574
 H1 0.483595 0.308456 0.69511  0.131701409574
 H1 0.361514 0.406838 0.78305  0.131701409574
 H1 0.117512 0.241039 0.67723  0.131701409574
 H1 0.239403 0.147201 0.58990  0.131701409574
 H1 0.067908 0.430533 0.66753  0.131701409574
 H1 0.27732 0.415543 0.9662  0.131701409574
 H1 0.257834 0.303281 0.92261  0.131701409574
 H1 0.173229 0.348649 0.  0.131701409574
 H1 0.983397 0.804439 0.19177  0.131701409574
 H1 0.861046 0.71646 0.09368  0.131701409574
 H1 0.617413 0.823177 0.25927  0.131701409574
 H1 0.739591 0.910647 0.35274  0.131701409574
 H1 0.567016 0.83232 0.07064  0.131701409574
 H1 0.777397 0.534206 0.08413  0.131701409574
 H1 0.757844 0.577127 0.19664  0.131701409574
 H1 0.673477 0.492754 0.15085  0.131701409574
 H1 0.983355 0.195666 0.80819  0.131701409574
 H1 0.861056 0.283673 0.90625  0.131701409574
 H1 0.61736 0.176845 0.74072  0.131701409574
 H1 0.739489 0.089363 0.64728  0.131701409574
 H1 0.567024 0.167723 0.92937  0.131701409574
 H1 0.777374 0.465976 0.91572  0.131701409574
 H1 0.757828 0.422946 0.80325  0.131701409574
 H1 0.673446 0.507299 0.84898  0.131701409574
 H1 0.483661 0.304857 0.30864  0.131701409574
 H1 0.361416 0.216958 0.40702  0.131701409574
 H1 0.117641 0.322912 0.24105  0.131701409574
 H1 0.239687 0.410218 0.14723  0.131701409574
 H1 0.067856 0.332532 0.43057  0.131701409574
 H1 0.277179 0.033865 0.41564  0.131701409574
 H1 0.257727 0.077499 0.30336  0.131701409574
 H1 0.173089 0.99309 0.3487  0.131701409574
 H1 0.483616 0.695221 0.69142  0.131701409574
 H1 0.361418 0.78315 0.59307  0.131701409574
 H1 0.117592 0.677126 0.75900  0.131701409574
 H1 0.239595 0.589801 0.85280  0.131701409574
 H1 0.067834 0.66752 0.5694  0.131701409574
 H1 0.277163 0.966308 0.5845  0.131701409574
 H1 0.257748 0.922577 0.69676  0.131701409574
 H1 0.173087 0.0 0.65143  0.131701409574
 C1 0.943135 0.338066 0.08682  0.640117659574
 C2 0.869033 0.277671 0.1368  -0.141412340426
 C3 0.903001 0.205016 0.1921  -0.0935523404255
 C3 0.835231 0.150474 0.24087  -0.0935523404255
 C4 0.732633 0.169832 0.23368  0.134497659574
 C3 0.697084 0.241997 0.17925  -0.0935523404255
 C3 0.765865 0.295355 0.13082  -0.0935523404255
 C5 0.580654 0.069327 0.24113  0.139357659574
 C6 0.65262 0.097568 0.37408  0.378387659574
 C7 0.719185 0.134387 0.44661  -0.454062340426
 C1 0.943025 0.661863 0.91318  0.640117659574
 C2 0.868966 0.722275 0.86321  -0.141412340426
 C3 0.90299 0.794923 0.80783  -0.0935523404255
 C3 0.835261 0.849494 0.75916  -0.0935523404255
 C4 0.732648 0.830147 0.76634  0.134497659574
 C3 0.697045 0.75799 0.82077  -0.0935523404255
 C3 0.765786 0.704597 0.86917  -0.0935523404255
 C5 0.580746 0.930675 0.75894  0.139357659574
 C6 0.65265 0.902465 0.6259  0.378387659574
 C7 0.719175 0.865673 0.55341  -0.454062340426
 C1 0.442897 0.838222 0.41317  0.640117659574
 C2 0.368972 0.777674 0.363  -0.141412340426
 C3 0.403152 0.704863 0.30819  -0.0935523404255
 C3 0.335557 0.650142 0.25953  -0.0935523404255
 C4 0.232931 0.669472 0.26640  0.134497659574
 C3 0.197178 0.741785 0.32047  -0.0935523404255
 C3 0.265783 0.795341 0.36885  -0.0935523404255
 C5 0.08131 0.568509 0.25897  0.139357659574
 C6 0.152927 0.597357 0.12597  0.378387659574
 C7 0.219285 0.634565 0.05346  -0.454062340426
 C1 0.442792 0.161721 0.58687  0.640117659574
 C2 0.368915 0.222284 0.63684  -0.141412340426
 C3 0.403154 0.295102 0.69184  -0.0935523404255
 C3 0.335606 0.349831 0.74050  -0.0935523404255
 C4 0.23296 0.33053 0.73362  0.134497659574
 C3 0.197152 0.258216 0.67956  -0.0935523404255
 C3 0.265711 0.204648 0.63117  -0.0935523404255
 C5 0.081426 0.431516 0.74101  0.139357659574
 C6 0.152971 0.402673 0.87403  0.378387659574
 C7 0.219277 0.365464 0.94657  -0.454062340426
 C1 0.942985 0.913211 0.3381  0.640117659574
 C2 0.868933 0.863204 0.27778  -0.141412340426
 C3 0.902975 0.807904 0.20514  -0.0935523404255
 C3 0.835266 0.759201 0.15058  -0.0935523404255
 C4 0.73265 0.766317 0.16990  0.134497659574
 C3 0.697029 0.820684 0.2420  -0.0935523404255
 C3 0.765751 0.869126 0.29542  -0.0935523404255
 C5 0.580751 0.758885 0.06934  0.139357659574
 C6 0.652745 0.62594 0.09754  0.378387659574
 C7 0.719325 0.553409 0.13433  -0.454062340426
 C1 0.942882 0.086818 0.66183  0.640117659574
 C2 0.86886 0.136843 0.72221  -0.141412340426
 C3 0.902932 0.192196 0.79482  -0.0935523404255
 C3 0.835249 0.240901 0.84937  -0.0935523404255
 C4 0.732628 0.23377 0.83006  0.134497659574
 C3 0.696979 0.179359 0.75794  -0.0935523404255
 C3 0.765676 0.130922 0.70456  -0.0935523404255
 C5 0.580754 0.241166 0.93064  0.139357659574
 C6 0.652736 0.374139 0.9023  0.378387659574
 C7 0.719305 0.446687 0.86554  -0.454062340426
 C1 0.443063 0.413139 0.16183  0.640117659574
 C2 0.369099 0.36321 0.22241  -0.141412340426
 C3 0.403233 0.30817 0.29525  -0.0935523404255
 C3 0.335594 0.259542 0.34998  -0.0935523404255
 C4 0.232973 0.26647 0.33063  0.134497659574
 C3 0.197265 0.320564 0.25828  -0.0935523404255
 C3 0.265913 0.368919 0.20471  -0.0935523404255
 C5 0.081345 0.259053 0.43156  0.139357659574
 C6 0.152855 0.126045 0.40274  0.378387659574
 C7 0.219151 0.053526 0.3655  -0.454062340426
 C1 0.442963 0.586886 0.83820  0.640117659574
 C2 0.369028 0.636841 0.7776  -0.141412340426
 C3 0.403187 0.691897 0.70481  -0.0935523404255
 C3 0.335574 0.740553 0.65010  -0.0935523404255
 C4 0.232948 0.733607 0.66944  0.134497659574
 C3 0.197217 0.679495 0.74179  -0.0935523404255
 C3 0.265839 0.631117 0.79533  -0.0935523404255
 C5 0.08133 0.741004 0.56851  0.139357659574
 C6 0.152853 0.874036 0.59737  0.378387659574
 C7 0.21915 0.946568 0.63459  -0.454062340426
 N1 0.526226 0.026509 0.30290  -0.257142340426
 N2 0.571924 0.044679 0.38662  -0.288742340426
 N3 0.660575 0.114138 0.28136  -0.0744623404255
 N1 0.526329 0.973515 0.69719  -0.257142340426
 N2 0.571989 0.955369 0.61346  -0.288742340426
 N3 0.660626 0.885872 0.71868  -0.0744623404255
 N1 0.026844 0.52581 0.19717  -0.257142340426
 N2 0.072332 0.544347 0.11343  -0.288742340426
 N3 0.161042 0.613609 0.21873  -0.0744623404255
 N1 0.026969 0.474227 0.8027  -0.257142340426
 N2 0.072405 0.455688 0.88655  -0.288742340426
 N3 0.161107 0.386407 0.78128  -0.0744623404255
 N1 0.52638 0.697129 0.02647  -0.257142340426
 N2 0.572102 0.613419 0.04460  -0.288742340426
 N3 0.660655 0.718648 0.11416  -0.0744623404255
 N1 0.526387 0.302908 0.97349  -0.257142340426
 N2 0.572103 0.386638 0.95532  -0.288742340426
 N3 0.660649 0.281427 0.885  -0.0744623404255
 N1 0.026827 0.197248 0.47424  -0.257142340426
 N2 0.072246 0.113499 0.45572  -0.288742340426
 N3 0.161045 0.218805 0.38648  -0.0744623404255
 N1 0.026818 0.802798 0.52584  -0.257142340426
 N2 0.072237 0.886565 0.54440  -0.288742340426
 N3 0.161032 0.781275 0.6136  -0.0744623404255
 O1 0.902809 0.403688 0.03821  -0.602092340426
 O2 0.035172 0.323787 0.09433  -0.591492340426
 O1 0.902679 0.596156 0.96170  -0.602092340426
 O2 0.035066 0.676205 0.9057  -0.591492340426
 O1 0.402449 0.903866 0.46161  -0.602092340426
 O2 0.534929 0.823993 0.40580  -0.591492340426
 O1 0.402318 0.096007 0.53851  -0.602092340426
 O2 0.534829 0.176009 0.59417  -0.591492340426
 O1 0.902636 0.961737 0.40382  -0.602092340426
 O2 0.035024 0.905777 0.3238  -0.591492340426
 O1 0.902521 0.038295 0.5961  -0.602092340426
 O2 0.034924 0.094237 0.6761  -0.591492340426
 O1 0.40263 0.461578 0.09614  -0.602092340426
 O2 0.535094 0.405748 0.17607  -0.591492340426
 O1 0.402522 0.53844 0.90390  -0.602092340426
 O2 0.534996 0.594262 0.82394  -0.591492340426
