#======================================================================

# CRYSTAL DATA

#----------------------------------------------------------------------

data_VESTA_phase_1


_pd_phase_name                         MOF
_cell_length_a                         15.42800
_cell_length_b                         20.13400
_cell_length_c                         17.80500
_cell_angle_alpha                      89.98000
_cell_angle_beta                       89.98700
_cell_angle_gamma                      89.99500
_symmetry_space_group_name_H-M         "P 1"
_symmetry_Int_Tables_number            1

loop_
_symmetry_equiv_pos_as_xyz
   "x, y, z"

loop_
   _atom_site_label
   _atom_site_fract_x
   _atom_site_fract_y
   _atom_site_fract_z
 _atom_site_charge
 Zn1 0.203929 0.124956 0.42460  0.117645652174
 Zn1 0.203931 0.624963 0.42461  0.117645652174
 Zn1 0.703914 0.124955 0.42460  0.117645652174
 Zn1 0.703925 0.624963 0.42460  0.117645652174
 Zn2 0.233214 0.125003 0.76548  0.557290652174
 Zn2 0.233211 0.62501 0.76548  0.557290652174
 Zn2 0.7332 0.124996 0.76548  0.557290652174
 Zn2 0.733197 0.625002 0.76548  0.557290652174
 Zn1 0.044763 0.374995 0.92459  0.117645652174
 Zn1 0.044768 0.875005 0.92459  0.117645652174
 Zn1 0.544741 0.374967 0.92458  0.117645652174
 Zn1 0.544735 0.874975 0.9245  0.117645652174
 Zn2 0.017459 0.375 0.26535  0.557290652174
 Zn2 0.017453 0.875007 0.26535  0.557290652174
 Zn2 0.517449 0.375001 0.26535  0.557290652174
 Zn2 0.517446 0.875004 0.26535  0.557290652174
 Zn1 0.296085 0.375061 0.57538  0.117645652174
 Zn1 0.29608 0.875066 0.57539  0.117645652174
 Zn1 0.796058 0.37506 0.57538  0.117645652174
 Zn1 0.796055 0.875066 0.57538  0.117645652174
 Zn2 0.266795 0.375018 0.23450  0.557290652174
 Zn2 0.266791 0.875028 0.23451  0.557290652174
 Zn2 0.766782 0.375011 0.23450  0.557290652174
 Zn2 0.766777 0.875021 0.23450  0.557290652174
 Zn1 0.455236 0.125046 0.07541  0.117645652174
 Zn1 0.45523 0.625056 0.07541  0.117645652174
 Zn1 0.95522 0.125019 0.07539  0.117645652174
 Zn1 0.955214 0.625025 0.07539  0.117645652174
 Zn2 0.482596 0.125014 0.73464  0.557290652174
 Zn2 0.482606 0.625025 0.7346  0.557290652174
 Zn2 0.982573 0.125016 0.73464  0.557290652174
 Zn2 0.98258 0.625022 0.73464  0.557290652174
 H1 0.288042 0.227218 0.31626  0.0470589855072
 H1 0.288051 0.727245 0.31629  0.0470589855072
 H1 0.788014 0.227189 0.31621  0.0470589855072
 H1 0.788039 0.727206 0.31620  0.0470589855072
 H1 0.025156 0.234309 0.37674  0.0470589855072
 H1 0.025151 0.734312 0.37673  0.0470589855072
 H1 0.525152 0.234331 0.37676  0.0470589855072
 H1 0.525173 0.734312 0.37675  0.0470589855072
 H1 0.46196 0.272731 0.81596  0.0470589855072
 H1 0.461942 0.772723 0.8159  0.0470589855072
 H1 0.961888 0.272697 0.81600  0.0470589855072
 H1 0.961887 0.772693 0.81603  0.0470589855072
 H1 0.224513 0.265737 0.87724  0.0470589855072
 H1 0.224525 0.765747 0.87723  0.0470589855072
 H1 0.724554 0.265714 0.87720  0.0470589855072
 H1 0.724541 0.765731 0.87720  0.0470589855072
 H1 0.212137 0.477148 0.68388  0.0470589855072
 H1 0.212102 0.977182 0.6838  0.0470589855072
 H1 0.712101 0.477137 0.6839  0.0470589855072
 H1 0.712083 0.977165 0.68387  0.0470589855072
 H1 0.474988 0.484373 0.62332  0.0470589855072
 H1 0.47499 0.984338 0.62338  0.0470589855072
 H1 0.974947 0.484352 0.62333  0.0470589855072
 H1 0.974941 0.984375 0.62332  0.0470589855072
 H1 0.038119 0.02266 0.18394  0.0470589855072
 H1 0.038121 0.522658 0.18394  0.0470589855072
 H1 0.538141 0.022636 0.18390  0.0470589855072
 H1 0.538117 0.522671 0.18394  0.0470589855072
 H1 0.275547 0.015745 0.12264  0.0470589855072
 H1 0.275543 0.515746 0.12262  0.0470589855072
 H1 0.775483 0.015787 0.12274  0.0470589855072
 H1 0.775487 0.515783 0.12272  0.0470589855072
 H1 0.212015 0.272817 0.68376  0.0470589855072
 H1 0.212024 0.772834 0.68379  0.0470589855072
 H1 0.711974 0.272797 0.68374  0.0470589855072
 H1 0.711993 0.772815 0.68376  0.0470589855072
 H1 0.474879 0.265689 0.62322  0.0470589855072
 H1 0.474882 0.765712 0.6232  0.0470589855072
 H1 0.974853 0.265715 0.62324  0.0470589855072
 H1 0.974854 0.765695 0.62320  0.0470589855072
 H1 0.03812 0.227313 0.18399  0.0470589855072
 H1 0.038108 0.727308 0.18400  0.0470589855072
 H1 0.53804 0.227269 0.1840  0.0470589855072
 H1 0.538045 0.727282 0.18403  0.0470589855072
 H1 0.275452 0.234318 0.12278  0.0470589855072
 H1 0.275454 0.734321 0.12278  0.0470589855072
 H1 0.775506 0.234299 0.12272  0.0470589855072
 H1 0.775502 0.734311 0.12271  0.0470589855072
 H1 0.287933 0.022857 0.31613  0.0470589855072
 H1 0.287943 0.522858 0.31613  0.0470589855072
 H1 0.787912 0.022863 0.31611  0.0470589855072
 H1 0.787944 0.522846 0.3161  0.0470589855072
 H1 0.025059 0.015663 0.37663  0.0470589855072
 H1 0.025071 0.515665 0.37664  0.0470589855072
 H1 0.52505 0.01564 0.37665  0.0470589855072
 H1 0.525062 0.515688 0.37661  0.0470589855072
 H1 0.461858 0.477395 0.81609  0.0470589855072
 H1 0.461872 0.977382 0.81607  0.0470589855072
 H1 0.961878 0.477375 0.81607  0.0470589855072
 H1 0.961886 0.977385 0.81607  0.0470589855072
 H1 0.224532 0.484201 0.87722  0.0470589855072
 H1 0.224547 0.984222 0.87721  0.0470589855072
 H1 0.724456 0.484252 0.87735  0.0470589855072
 H1 0.724459 0.98426 0.87735  0.0470589855072
 H1 0.267445 0.124939 0.58314  0.0470589855072
 H1 0.267466 0.624977 0.58315  0.0470589855072
 H1 0.767435 0.124952 0.58314  0.0470589855072
 H1 0.767458 0.624907 0.5831  0.0470589855072
 H1 0.000769 0.125068 0.53644  0.0470589855072
 H1 0.000792 0.625053 0.53645  0.0470589855072
 H1 0.50076 0.125056 0.53644  0.0470589855072
 H1 0.500784 0.625101 0.53643  0.0470589855072
 H1 0.481917 0.37495 0.08351  0.0470589855072
 H1 0.481912 0.874908 0.08351  0.0470589855072
 H1 0.981916 0.374986 0.08351  0.0470589855072
 H1 0.981922 0.874994 0.08351  0.0470589855072
 H1 0.248442 0.374981 0.03591  0.0470589855072
 H1 0.248452 0.87502 0.03592  0.0470589855072
 H1 0.748417 0.375065 0.03591  0.0470589855072
 H1 0.748411 0.875107 0.03590  0.0470589855072
 H1 0.232609 0.37507 0.41684  0.0470589855072
 H1 0.232609 0.875118 0.41685  0.0470589855072
 H1 0.732576 0.375063 0.41683  0.0470589855072
 H1 0.732562 0.875061 0.41682  0.0470589855072
 H1 0.49928 0.374959 0.46356  0.0470589855072
 H1 0.49928 0.874926 0.46357  0.0470589855072
 H1 0.999244 0.374958 0.4635  0.0470589855072
 H1 0.999229 0.874965 0.46356  0.0470589855072
 H1 0.018084 0.125047 0.91648  0.0470589855072
 H1 0.018074 0.625015 0.91648  0.0470589855072
 H1 0.518071 0.125082 0.91649  0.0470589855072
 H1 0.518059 0.625104 0.91649  0.0470589855072
 H1 0.251562 0.124928 0.96406  0.0470589855072
 H1 0.251552 0.624943 0.96407  0.0470589855072
 H1 0.751554 0.12502 0.96406  0.0470589855072
 H1 0.751545 0.625023 0.96406  0.0470589855072
 C1 0.220754 0.242239 0.32093  0.191283985507
 C1 0.220761 0.742263 0.32096  0.191283985507
 C1 0.720732 0.242221 0.32090  0.191283985507
 C1 0.720753 0.74223 0.32089  0.191283985507
 C1 0.087902 0.245877 0.35252  0.191283985507
 C1 0.087899 0.745883 0.35252  0.191283985507
 C1 0.587895 0.245887 0.35253  0.191283985507
 C1 0.587912 0.745878 0.35251  0.191283985507
 C1 0.029207 0.257732 0.82084  0.191283985507
 C1 0.029204 0.757725 0.82088  0.191283985507
 C1 0.529246 0.257748 0.82080  0.191283985507
 C1 0.529233 0.757749 0.82081  0.191283985507
 C1 0.161897 0.254154 0.85281  0.191283985507
 C1 0.161908 0.754166 0.85280  0.191283985507
 C1 0.661931 0.25414 0.85278  0.191283985507
 C1 0.66192 0.75415 0.85278  0.191283985507
 C1 0.27941 0.492199 0.67918  0.191283985507
 C1 0.279382 0.992218 0.67916  0.191283985507
 C1 0.779372 0.492189 0.67920  0.191283985507
 C1 0.779357 0.992212 0.6791  0.191283985507
 C1 0.412237 0.495907 0.64754  0.191283985507
 C1 0.412229 0.995891 0.64758  0.191283985507
 C1 0.9122 0.495887 0.6475  0.191283985507
 C1 0.91219 0.99591 0.64755  0.191283985507
 C1 0.470851 0.007675 0.17905  0.191283985507
 C1 0.470828 0.507708 0.17908  0.191283985507
 C1 0.9708 0.007707 0.1791  0.191283985507
 C1 0.970805 0.507701 0.17909  0.191283985507
 C1 0.338153 0.004147 0.14710  0.191283985507
 C1 0.338148 0.504149 0.14708  0.191283985507
 C1 0.838101 0.004175 0.14716  0.191283985507
 C1 0.838101 0.504179 0.14716  0.191283985507
 C1 0.2793 0.25779 0.67908  0.191283985507
 C1 0.279306 0.757803 0.67909  0.191283985507
 C1 0.779262 0.257777 0.67906  0.191283985507
 C1 0.779278 0.757788 0.67907  0.191283985507
 C1 0.412135 0.254128 0.6474  0.191283985507
 C1 0.412143 0.754151 0.64746  0.191283985507
 C1 0.91211 0.254144 0.64746  0.191283985507
 C1 0.912115 0.754135 0.64744  0.191283985507
 C1 0.470761 0.242268 0.17918  0.191283985507
 C1 0.470762 0.742273 0.17918  0.191283985507
 C1 0.970806 0.242286 0.17913  0.191283985507
 C1 0.970797 0.742288 0.17914  0.191283985507
 C1 0.338071 0.245878 0.14722  0.191283985507
 C1 0.338074 0.745887 0.14722  0.191283985507
 C1 0.838117 0.245873 0.14717  0.191283985507
 C1 0.838112 0.745881 0.14716  0.191283985507
 C1 0.220654 0.007818 0.3208  0.191283985507
 C1 0.220668 0.507811 0.32082  0.191283985507
 C1 0.72064 0.007812 0.32081  0.191283985507
 C1 0.720663 0.507814 0.32081  0.191283985507
 C1 0.087817 0.004119 0.35242  0.191283985507
 C1 0.087824 0.504127 0.35242  0.191283985507
 C1 0.587804 0.004107 0.35243  0.191283985507
 C1 0.587819 0.504136 0.3524  0.191283985507
 C1 0.029203 0.492316 0.82089  0.191283985507
 C1 0.029207 0.992334 0.82090  0.191283985507
 C1 0.529153 0.492342 0.82094  0.191283985507
 C1 0.529168 0.992329 0.82091  0.191283985507
 C1 0.161912 0.495823 0.85281  0.191283985507
 C1 0.161924 0.995836 0.85280  0.191283985507
 C1 0.661849 0.495861 0.85290  0.191283985507
 C1 0.66185 0.995872 0.85291  0.191283985507
 C1 0.19757 0.124971 0.58981  0.191283985507
 C1 0.197591 0.625005 0.5898  0.191283985507
 C1 0.69756 0.124988 0.58981  0.191283985507
 C1 0.697582 0.62495 0.5898  0.191283985507
 C1 0.06265 0.12505 0.56548  0.191283985507
 C1 0.062672 0.625042 0.56549  0.191283985507
 C1 0.562641 0.125034 0.56548  0.191283985507
 C1 0.562663 0.625069 0.56548  0.191283985507
 C1 0.051844 0.374994 0.08992  0.191283985507
 C1 0.051849 0.874989 0.0899  0.191283985507
 C1 0.551819 0.374976 0.08991  0.191283985507
 C1 0.551816 0.874961 0.08991  0.191283985507
 C1 0.186672 0.374987 0.06515  0.191283985507
 C1 0.186678 0.875028 0.06516  0.191283985507
 C1 0.686647 0.375045 0.06515  0.191283985507
 C1 0.686642 0.875065 0.0651  0.191283985507
 C1 0.302484 0.375031 0.41017  0.191283985507
 C1 0.302484 0.875071 0.41018  0.191283985507
 C1 0.802452 0.375034 0.41017  0.191283985507
 C1 0.802438 0.875028 0.41016  0.191283985507
 C1 0.437401 0.374982 0.43452  0.191283985507
 C1 0.437401 0.874961 0.43452  0.191283985507
 C1 0.937368 0.374971 0.4345  0.191283985507
 C1 0.937353 0.874982 0.43451  0.191283985507
 C1 0.448169 0.125048 0.91008  0.191283985507
 C1 0.448157 0.625056 0.91008  0.191283985507
 C1 0.948157 0.125033 0.91007  0.191283985507
 C1 0.948148 0.625022 0.91007  0.191283985507
 C1 0.313338 0.12496 0.93482  0.191283985507
 C1 0.313327 0.624977 0.93483  0.191283985507
 C1 0.813327 0.125019 0.93482  0.191283985507
 C1 0.813318 0.625014 0.93482  0.191283985507
 N1 0.160561 0.208516 0.36149  -0.292056014493
 N1 0.160564 0.708532 0.36150  -0.292056014493
 N1 0.660544 0.208512 0.36147  -0.292056014493
 N1 0.66057 0.708514 0.36146  -0.292056014493
 N2 0.188334 0.296559 0.28879  -0.204804347826
 N2 0.188333 0.796572 0.28880  -0.204804347826
 N2 0.688319 0.296549 0.28877  -0.204804347826
 N2 0.688326 0.796551 0.28876  -0.204804347826
 N2 0.102212 0.299027 0.30929  -0.204804347826
 N2 0.102208 0.799035 0.309  -0.204804347826
 N2 0.602204 0.299031 0.30929  -0.204804347826
 N2 0.602211 0.799025 0.30928  -0.204804347826
 N1 0.089137 0.291456 0.86163  -0.292056014493
 N1 0.089143 0.791462 0.86164  -0.292056014493
 N1 0.589192 0.291471 0.86157  -0.292056014493
 N1 0.589175 0.791473 0.86158  -0.292056014493
 N2 0.061816 0.203487 0.78872  -0.204804347826
 N2 0.061818 0.70349 0.78873  -0.204804347826
 N2 0.561826 0.203477 0.7887  -0.204804347826
 N2 0.561818 0.703481 0.78872  -0.204804347826
 N2 0.147876 0.201044 0.80946  -0.204804347826
 N2 0.147879 0.701047 0.80947  -0.204804347826
 N2 0.647883 0.201017 0.80946  -0.204804347826
 N2 0.647878 0.70103 0.80945  -0.204804347826
 N1 0.339619 0.458504 0.63864  -0.292056014493
 N1 0.339601 0.958504 0.63865  -0.292056014493
 N1 0.839581 0.458485 0.63866  -0.292056014493
 N1 0.839569 0.958513 0.6386  -0.292056014493
 N2 0.311763 0.046541 0.71125  -0.204804347826
 N2 0.311775 0.546544 0.71126  -0.204804347826
 N2 0.811739 0.046533 0.71126  -0.204804347826
 N2 0.811746 0.54653 0.71128  -0.204804347826
 N2 0.397887 0.049029 0.69075  -0.204804347826
 N2 0.397886 0.549055 0.69073  -0.204804347826
 N2 0.897851 0.049044 0.69073  -0.204804347826
 N2 0.897853 0.549044 0.69074  -0.204804347826
 N1 0.410929 0.041425 0.13825  -0.292056014493
 N1 0.410915 0.541441 0.13826  -0.292056014493
 N1 0.910864 0.041469 0.13833  -0.292056014493
 N1 0.910865 0.54147 0.13833  -0.292056014493
 N2 0.438205 0.453465 0.21123  -0.204804347826
 N2 0.438205 0.953466 0.21123  -0.204804347826
 N2 0.938187 0.45345 0.21123  -0.204804347826
 N2 0.938179 0.953464 0.21123  -0.204804347826
 N2 0.352152 0.451038 0.19047  -0.204804347826
 N2 0.352151 0.951042 0.19047  -0.204804347826
 N2 0.85213 0.45103 0.19049  -0.204804347826
 N2 0.852117 0.951049 0.19050  -0.204804347826
 N1 0.339482 0.291499 0.63850  -0.292056014493
 N1 0.339486 0.79152 0.63852  -0.292056014493
 N1 0.839447 0.291501 0.63850  -0.292056014493
 N1 0.839458 0.7915 0.63849  -0.292056014493
 N2 0.311714 0.203461 0.7112  -0.204804347826
 N2 0.311728 0.703479 0.7112  -0.204804347826
 N2 0.811689 0.20346 0.71120  -0.204804347826
 N2 0.811699 0.703468 0.71121  -0.204804347826
 N2 0.397831 0.200985 0.69069  -0.204804347826
 N2 0.397841 0.701002 0.69069  -0.204804347826
 N2 0.897809 0.200994 0.69069  -0.204804347826
 N2 0.897815 0.700991 0.69068  -0.204804347826
 N1 0.410807 0.208544 0.13842  -0.292056014493
 N1 0.41081 0.708555 0.13842  -0.292056014493
 N1 0.910874 0.208566 0.1383  -0.292056014493
 N1 0.910866 0.708569 0.13835  -0.292056014493
 N2 0.438182 0.296531 0.21128  -0.204804347826
 N2 0.438185 0.796539 0.21129  -0.204804347826
 N2 0.938196 0.296528 0.21127  -0.204804347826
 N2 0.93819 0.796535 0.21126  -0.204804347826
 N2 0.352129 0.299006 0.19053  -0.204804347826
 N2 0.35213 0.799008 0.19054  -0.204804347826
 N2 0.852141 0.298982 0.19051  -0.204804347826
 N2 0.852137 0.798992 0.19050  -0.204804347826
 N1 0.160435 0.04152 0.36134  -0.292056014493
 N1 0.160447 0.54152 0.36134  -0.292056014493
 N1 0.660421 0.041509 0.36134  -0.292056014493
 N1 0.660447 0.541524 0.36133  -0.292056014493
 N2 0.188292 0.45348 0.28872  -0.204804347826
 N2 0.188283 0.953485 0.28873  -0.204804347826
 N2 0.688287 0.453475 0.28872  -0.204804347826
 N2 0.688265 0.953487 0.28872  -0.204804347826
 N2 0.102178 0.45097 0.30925  -0.204804347826
 N2 0.102164 0.950983 0.30924  -0.204804347826
 N2 0.602166 0.450984 0.30923  -0.204804347826
 N2 0.602152 0.950974 0.30925  -0.204804347826
 N1 0.089139 0.458544 0.86165  -0.292056014493
 N1 0.089154 0.958554 0.8616  -0.292056014493
 N1 0.589067 0.458589 0.86174  -0.292056014493
 N1 0.589075 0.958589 0.86174  -0.292056014493
 N2 0.061834 0.046567 0.78876  -0.204804347826
 N2 0.061823 0.546569 0.78876  -0.204804347826
 N2 0.561808 0.046558 0.78877  -0.204804347826
 N2 0.561797 0.54657 0.78877  -0.204804347826
 N2 0.147899 0.048974 0.80948  -0.204804347826
 N2 0.14789 0.548969 0.80948  -0.204804347826
 N2 0.647867 0.048966 0.80951  -0.204804347826
 N2 0.647853 0.548981 0.80952  -0.204804347826
 N1 0.141432 0.12501 0.53103  -0.292056014493
 N1 0.141455 0.625019 0.53104  -0.292056014493
 N1 0.641424 0.125011 0.53103  -0.292056014493
 N1 0.641447 0.625015 0.53103  -0.292056014493
 N2 0.15754 0.125005 0.65595  -0.204804347826
 N2 0.157559 0.625018 0.65596  -0.204804347826
 N2 0.657529 0.124991 0.65595  -0.204804347826
 N2 0.657548 0.624988 0.65595  -0.204804347826
 N2 0.069996 0.125033 0.64032  -0.204804347826
 N2 0.070016 0.625043 0.64033  -0.204804347826
 N2 0.569986 0.125027 0.64032  -0.204804347826
 N2 0.570006 0.625037 0.64032  -0.204804347826
 N1 0.107746 0.374978 0.03096  -0.292056014493
 N1 0.107755 0.87501 0.0309  -0.292056014493
 N1 0.607721 0.375014 0.03096  -0.292056014493
 N1 0.607714 0.875012 0.03096  -0.292056014493
 N2 0.092143 0.375005 0.15591  -0.204804347826
 N2 0.092142 0.875019 0.1559  -0.204804347826
 N2 0.59212 0.374996 0.15591  -0.204804347826
 N2 0.592119 0.874986 0.15591  -0.204804347826
 N2 0.179624 0.37501 0.14003  -0.204804347826
 N2 0.179625 0.875016 0.14004  -0.204804347826
 N2 0.6796 0.375025 0.14003  -0.204804347826
 N2 0.679599 0.875046 0.14002  -0.204804347826
 N1 0.358614 0.375007 0.46896  -0.292056014493
 N1 0.358615 0.875013 0.46897  -0.292056014493
 N1 0.858581 0.375005 0.46896  -0.292056014493
 N1 0.858565 0.875009 0.46895  -0.292056014493
 N2 0.342518 0.375026 0.34404  -0.204804347826
 N2 0.342516 0.875042 0.34405  -0.204804347826
 N2 0.84249 0.375005 0.34404  -0.204804347826
 N2 0.842477 0.875015 0.34403  -0.204804347826
 N2 0.43006 0.374988 0.3596  -0.204804347826
 N2 0.430059 0.874989 0.35968  -0.204804347826
 N2 0.930031 0.374981 0.35967  -0.204804347826
 N2 0.930018 0.874985 0.3596  -0.204804347826
 N1 0.392257 0.124999 0.96902  -0.292056014493
 N1 0.392248 0.62502 0.96903  -0.292056014493
 N1 0.89225 0.125039 0.96902  -0.292056014493
 N1 0.89224 0.625017 0.96902  -0.292056014493
 N2 0.407881 0.125026 0.84407  -0.204804347826
 N2 0.407868 0.625039 0.84408  -0.204804347826
 N2 0.907864 0.125013 0.84407  -0.204804347826
 N2 0.907856 0.625009 0.84407  -0.204804347826
 N2 0.320397 0.124984 0.85995  -0.204804347826
 N2 0.320385 0.624989 0.8599  -0.204804347826
 N2 0.820382 0.125 0.85995  -0.204804347826
 N2 0.820373 0.625015 0.85995  -0.204804347826
