#======================================================================

# CRYSTAL DATA

#----------------------------------------------------------------------

data_VESTA_phase_1


_pd_phase_name                         MOF
_cell_length_a                         20.52100
_cell_length_b                         16.61600
_cell_length_c                         19.79800
_cell_angle_alpha                      89.96500
_cell_angle_beta                       101.65100
_cell_angle_gamma                      90.04100
_symmetry_space_group_name_H-M         "P 1"
_symmetry_Int_Tables_number            1

loop_
_symmetry_equiv_pos_as_xyz
   "x, y, z"

loop_
   _atom_site_label
   _atom_site_fract_x
   _atom_site_fract_y
   _atom_site_fract_z
 _atom_site_charge
 Zn1 0.258619 0.340101 0.37986  1.02100194805
 Zn1 0.758619 0.34011 0.37988  1.02100194805
 Zn2 0.3637 0.419806 0.48070  1.18501194805
 Zn2 0.863704 0.419814 0.48070  1.18501194805
 Zn1 0.241348 0.840011 0.62002  1.02100194805
 Zn1 0.741347 0.840016 0.62005  1.02100194805
 Zn2 0.136354 0.919705 0.51912  1.18501194805
 Zn2 0.63635 0.919713 0.51915  1.18501194805
 H1 0.282447 0.058697 0.71459  0.105302382835
 H1 0.782443 0.058696 0.71459  0.105302382835
 H1 0.358943 0.291829 0.67161  0.105302382835
 H1 0.858984 0.291807 0.67162  0.105302382835
 H1 0.452845 0.199406 0.70839  0.105302382835
 H1 0.952866 0.199375 0.70841  0.105302382835
 H1 0.101831 0.269334 0.88379  0.105302382835
 H1 0.601829 0.269334 0.88376  0.105302382835
 H1 0.020671 0.254945 0.95984  0.105302382835
 H1 0.520679 0.254941 0.95982  0.105302382835
 H1 0.189783 0.184451 0.87293  0.105302382835
 H1 0.689775 0.184423 0.8729  0.105302382835
 H1 0.22664 0.087612 0.89118  0.105302382835
 H1 0.726644 0.087593 0.89119  0.105302382835
 H1 0.180716 0.19792 0.99794  0.105302382835
 H1 0.680704 0.197921 0.99793  0.105302382835
 H1 0.136283 0.112828 0.95813  0.105302382835
 H1 0.636281 0.112814 0.95813  0.105302382835
 H1 0.215231 0.099974 0.  0.105302382835
 H1 0.71523 0.099983 0.  0.105302382835
 H1 0.25442 0.164236 0.80002  0.105302382835
 H1 0.754423 0.164228 0.80002  0.105302382835
 H1 0.388963 0.07068 0.97105  0.105302382835
 H1 0.888945 0.070675 0.97105  0.105302382835
 H1 0.39777 0.960728 0.05689  0.105302382835
 H1 0.897754 0.960729 0.05690  0.105302382835
 H1 0.459626 0.129791 0.22194  0.105302382835
 H1 0.959615 0.129801 0.2219  0.105302382835
 H1 0.45914 0.385068 0.10977  0.105302382835
 H1 0.959131 0.38507 0.10977  0.105302382835
 H1 0.48806 0.45127 0.01502  0.105302382835
 H1 0.988051 0.451269 0.01502  0.105302382835
 H1 0.406258 0.468544 0.03030  0.105302382835
 H1 0.906245 0.468539 0.03029  0.105302382835
 H1 0.364785 0.498939 0.90540  0.105302382835
 H1 0.86478 0.498934 0.90540  0.105302382835
 H1 0.434347 0.561801 0.93909  0.105302382835
 H1 0.934337 0.561799 0.93909  0.105302382835
 H1 0.444724 0.476969 0.88778  0.105302382835
 H1 0.944724 0.476972 0.88778  0.105302382835
 H1 0.081816 0.281657 0.21124  0.105302382835
 H1 0.581827 0.281659 0.21125  0.105302382835
 H1 0.037065 0.357932 0.40401  0.105302382835
 H1 0.537058 0.357909 0.40402  0.105302382835
 H1 0.377884 0.28963 0.2365  0.105302382835
 H1 0.877877 0.289656 0.2365  0.105302382835
 H1 0.21754 0.558773 0.28546  0.105302382835
 H1 0.717538 0.558784 0.28550  0.105302382835
 H1 0.141088 0.791787 0.32828  0.105302382835
 H1 0.641069 0.791787 0.32832  0.105302382835
 H1 0.047179 0.699367 0.29159  0.105302382835
 H1 0.547164 0.699358 0.29161  0.105302382835
 H1 0.398231 0.769306 0.11621  0.105302382835
 H1 0.89824 0.769346 0.11620  0.105302382835
 H1 0.479354 0.754946 0.04015  0.105302382835
 H1 0.979355 0.754983 0.04013  0.105302382835
 H1 0.310189 0.68446 0.12705  0.105302382835
 H1 0.810193 0.684465 0.12708  0.105302382835
 H1 0.273233 0.58762 0.10889  0.105302382835
 H1 0.77324 0.587622 0.1089  0.105302382835
 H1 0.319293 0.697909 0.  0.105302382835
 H1 0.819299 0.697906 0.  0.105302382835
 H1 0.363633 0.612814 0.04194  0.105302382835
 H1 0.863636 0.61281 0.04197  0.105302382835
 H1 0.28468 0.59995 0.98536  0.105302382835
 H1 0.784683 0.599949 0.98539  0.105302382835
 H1 0.245541 0.664238 0.19995  0.105302382835
 H1 0.745541 0.664251 0.19999  0.105302382835
 H1 0.111005 0.570752 0.02900  0.105302382835
 H1 0.611024 0.570731 0.0290  0.105302382835
 H1 0.10222 0.460871 0.94323  0.105302382835
 H1 0.60224 0.460853 0.94325  0.105302382835
 H1 0.04042 0.629918 0.77807  0.105302382835
 H1 0.540396 0.629898 0.77810  0.105302382835
 H1 0.040834 0.885127 0.89009  0.105302382835
 H1 0.540815 0.885104 0.89012  0.105302382835
 H1 0.011898 0.951192 0.9848  0.105302382835
 H1 0.511902 0.951174 0.98486  0.105302382835
 H1 0.093693 0.968686 0.96954  0.105302382835
 H1 0.593696 0.968659 0.96957  0.105302382835
 H1 0.13514 0.999033 0.09444  0.105302382835
 H1 0.635155 0.998999 0.09447  0.105302382835
 H1 0.065572 0.061787 0.06071  0.105302382835
 H1 0.565588 0.061761 0.0607  0.105302382835
 H1 0.055197 0.97687 0.11205  0.105302382835
 H1 0.555212 0.976843 0.11208  0.105302382835
 H1 0.418142 0.781772 0.78875  0.105302382835
 H1 0.918168 0.781803 0.78874  0.105302382835
 H1 0.462918 0.857809 0.59583  0.105302382835
 H1 0.962906 0.857783 0.595  0.105302382835
 H1 0.122071 0.789463 0.76325  0.105302382835
 H1 0.622058 0.789474 0.76331  0.105302382835
 C1 0.311308 0.290033 0.53260  0.731041948052
 C1 0.811348 0.290023 0.5326  0.731041948052
 C2 0.302181 0.228529 0.58442  -0.0378944805195
 C2 0.802221 0.228516 0.58443  -0.0378944805195
 C3 0.264949 0.160056 0.56524  0.0957119480519
 C3 0.764981 0.16005 0.56524  0.0957119480519
 C2 0.256497 0.098406 0.60916  -0.0378944805195
 C2 0.756515 0.098405 0.60916  -0.0378944805195
 C4 0.287353 0.10743 0.67905  -0.122823436563
 C4 0.787363 0.107426 0.67905  -0.122823436563
 C2 0.32359 0.176982 0.70268  -0.0378944805195
 C2 0.823608 0.17697 0.70269  -0.0378944805195
 C4 0.331195 0.236986 0.65483  -0.122823436563
 C4 0.83123 0.23697 0.65483  -0.122823436563
 C1 0.218332 0.02432 0.5857  0.731041948052
 C1 0.71834 0.024326 0.58572  0.731041948052
 C2 0.350075 0.187549 0.77763  -0.0378944805195
 C2 0.850084 0.187535 0.77764  -0.0378944805195
 C2 0.417912 0.208211 0.8050  -0.0378944805195
 C2 0.91792 0.208196 0.80504  -0.0378944805195
 C4 0.466447 0.213204 0.76313  -0.122823436563
 C4 0.966461 0.213182 0.76315  -0.122823436563
 C5 0.031004 0.234495 0.79169  0.142111948052
 C5 0.530992 0.234511 0.79167  0.142111948052
 C4 0.050811 0.251138 0.86282  -0.122823436563
 C4 0.550807 0.251143 0.86280  -0.122823436563
 C4 0.005215 0.243825 0.90472  -0.122823436563
 C4 0.505216 0.243828 0.90470  -0.122823436563
 C2 0.437853 0.222169 0.87804  -0.0378944805195
 C2 0.937852 0.22216 0.87805  -0.0378944805195
 C2 0.391432 0.213592 0.92227  -0.0378944805195
 C2 0.891426 0.213586 0.92227  -0.0378944805195
 C6 0.326239 0.190725 0.8937  0.247246948052
 C6 0.826234 0.190718 0.89372  0.247246948052
 C7 0.21957 0.146925 0.91370  0.185596948052
 C7 0.719566 0.14691 0.91370  0.185596948052
 C8 0.186137 0.138842 0.97487  -0.377838051948
 C8 0.686133 0.138838 0.97487  -0.377838051948
 C4 0.30619 0.178157 0.82196  -0.122823436563
 C4 0.806192 0.178147 0.82196  -0.122823436563
 C2 0.411736 0.22915 0.99748  -0.0378944805195
 C2 0.911723 0.229148 0.99748  -0.0378944805195
 C2 0.417793 0.165388 0.04645  -0.0378944805195
 C2 0.917777 0.165387 0.04645  -0.0378944805195
 C4 0.403935 0.084096 0.02583  -0.122823436563
 C4 0.903918 0.084095 0.02583  -0.122823436563
 C4 0.408736 0.022706 0.07329  -0.122823436563
 C4 0.908721 0.022708 0.07330  -0.122823436563
 C5 0.428691 0.040052 0.14439  0.142111948052
 C5 0.928678 0.040057 0.14440  0.142111948052
 C4 0.443764 0.117473 0.16708  -0.122823436563
 C4 0.943751 0.11748 0.16709  -0.122823436563
 C2 0.438574 0.181801 0.11898  -0.0378944805195
 C2 0.938559 0.181804 0.11898  -0.0378944805195
 C2 0.453963 0.262659 0.14050  -0.0378944805195
 C2 0.953949 0.262663 0.14050  -0.0378944805195
 C4 0.447563 0.323756 0.09203  -0.122823436563
 C4 0.947552 0.323758 0.09203  -0.122823436563
 C6 0.42563 0.307824 0.02088  0.247246948052
 C6 0.92562 0.307822 0.02088  0.247246948052
 C7 0.434553 0.448427 0.99159  0.185596948052
 C7 0.934545 0.448424 0.99159  0.185596948052
 C8 0.41844 0.499416 0.92703  -0.377838051948
 C8 0.918435 0.499414 0.92702  -0.377838051948
 C2 0.476929 0.284049 0.21461  -0.0378944805195
 C2 0.976919 0.284059 0.21460  -0.0378944805195
 C4 0.044845 0.293755 0.24245  -0.122823436563
 C4 0.544853 0.293751 0.24246  -0.122823436563
 C2 0.066436 0.319624 0.31067  -0.0378944805195
 C2 0.566438 0.31961 0.31068  -0.0378944805195
 C4 0.019972 0.336468 0.35151  -0.122823436563
 C4 0.519969 0.336445 0.35152  -0.122823436563
 C2 0.45218 0.32483 0.32476  -0.0378944805195
 C2 0.952178 0.324866 0.32475  -0.0378944805195
 C4 0.430908 0.298042 0.25665  -0.122823436563
 C4 0.930902 0.298064 0.25665  -0.122823436563
 C1 0.138751 0.329791 0.34007  0.731041948052
 C1 0.638752 0.329783 0.34009  0.731041948052
 C1 0.401661 0.342368 0.36724  0.731041948052
 C1 0.901661 0.342425 0.36723  0.731041948052
 C1 0.188771 0.790027 0.46728  0.731041948052
 C1 0.688747 0.790023 0.46731  0.731041948052
 C2 0.197868 0.728547 0.41549  -0.0378944805195
 C2 0.697847 0.728546 0.41553  -0.0378944805195
 C3 0.235118 0.660132 0.43472  0.0957119480519
 C3 0.735098 0.660133 0.43476  0.0957119480519
 C2 0.243562 0.59851 0.39085  -0.0378944805195
 C2 0.743548 0.598516 0.39089  -0.0378944805195
 C4 0.21266 0.607493 0.3209  -0.122823436563
 C4 0.712653 0.607501 0.32100  -0.122823436563
 C2 0.176415 0.67699 0.29729  -0.0378944805195
 C2 0.676405 0.676996 0.29732  -0.0378944805195
 C4 0.168829 0.736975 0.34509  -0.122823436563
 C4 0.668812 0.736976 0.34513  -0.122823436563
 C1 0.281745 0.524465 0.41428  0.731041948052
 C1 0.781734 0.524473 0.4143  0.731041948052
 C2 0.149918 0.687547 0.22234  -0.0378944805195
 C2 0.649913 0.687549 0.22237  -0.0378944805195
 C2 0.082102 0.708216 0.19494  -0.0378944805195
 C2 0.582095 0.708205 0.19497  -0.0378944805195
 C4 0.033581 0.713187 0.2368  -0.122823436563
 C4 0.533569 0.713172 0.23686  -0.122823436563
 C5 0.469042 0.734475 0.20832  0.142111948052
 C5 0.969054 0.734501 0.20831  0.142111948052
 C4 0.449238 0.751123 0.13718  -0.122823436563
 C4 0.949246 0.751157 0.13717  -0.122823436563
 C4 0.494817 0.743826 0.0952  -0.122823436563
 C4 0.994821 0.743857 0.09526  -0.122823436563
 C2 0.062167 0.722195 0.12192  -0.0378944805195
 C2 0.562162 0.722173 0.12194  -0.0378944805195
 C2 0.108575 0.713635 0.07769  -0.0378944805195
 C2 0.608574 0.713615 0.0777  -0.0378944805195
 C6 0.173745 0.690743 0.10624  0.247246948052
 C6 0.673745 0.690736 0.10627  0.247246948052
 C7 0.280369 0.646927 0.08632  0.185596948052
 C7 0.780374 0.646928 0.08635  0.185596948052
 C8 0.313805 0.638827 0.02516  -0.377838051948
 C8 0.813809 0.638826 0.02519  -0.377838051948
 C4 0.193785 0.678164 0.17801  -0.122823436563
 C4 0.693784 0.678168 0.1780  -0.122823436563
 C2 0.088273 0.729213 0.00247  -0.0378944805195
 C2 0.588271 0.729189 0.00250  -0.0378944805195
 C2 0.082218 0.665478 0.95354  -0.0378944805195
 C2 0.582214 0.665455 0.95357  -0.0378944805195
 C4 0.096058 0.584193 0.97421  -0.122823436563
 C4 0.596066 0.584171 0.97424  -0.122823436563
 C4 0.091267 0.522825 0.92679  -0.122823436563
 C4 0.591276 0.522805 0.92681  -0.122823436563
 C5 0.07134 0.540185 0.85567  0.142111948052
 C5 0.571337 0.540166 0.855  0.142111948052
 C4 0.05627 0.617596 0.83294  -0.122823436563
 C4 0.556255 0.617575 0.83296  -0.122823436563
 C2 0.061444 0.681903 0.88100  -0.0378944805195
 C2 0.561428 0.68188 0.88103  -0.0378944805195
 C2 0.046035 0.762747 0.85943  -0.0378944805195
 C2 0.546011 0.762724 0.85946  -0.0378944805195
 C4 0.052422 0.823825 0.90786  -0.122823436563
 C4 0.552405 0.823801 0.90789  -0.122823436563
 C6 0.07437 0.807891 0.97902  0.247246948052
 C6 0.574364 0.807866 0.97905  0.247246948052
 C7 0.065406 0.948446 0.00826  0.185596948052
 C7 0.565411 0.948421 0.00829  0.185596948052
 C8 0.081488 0.999422 0.07280  -0.377838051948
 C8 0.581501 0.999393 0.07284  -0.377838051948
 C2 0.023052 0.784097 0.7853  -0.0378944805195
 C2 0.52303 0.784081 0.7853  -0.0378944805195
 C4 0.455112 0.793822 0.75751  -0.122823436563
 C4 0.95513 0.793839 0.75749  -0.122823436563
 C2 0.433528 0.819622 0.68924  -0.0378944805195
 C2 0.933535 0.819626 0.68922  -0.0378944805195
 C4 0.479998 0.836365 0.64835  -0.122823436563
 C4 0.979995 0.836351 0.64832  -0.122823436563
 C2 0.047771 0.824618 0.67503  -0.0378944805195
 C2 0.547771 0.824637 0.67508  -0.0378944805195
 C4 0.069055 0.797933 0.74318  -0.122823436563
 C4 0.569043 0.797938 0.74323  -0.122823436563
 C1 0.361222 0.829811 0.6598  0.731041948052
 C1 0.861226 0.82981 0.65983  0.731041948052
 C1 0.098259 0.841915 0.63242  0.731041948052
 C1 0.598272 0.841957 0.63249  0.731041948052
 Cl1 0.090424 0.240629 0.73989  -0.136633051948
 Cl1 0.590405 0.24065 0.73986  -0.136633051948
 Cl1 0.434843 0.960907 0.20325  -0.136633051948
 Cl1 0.934833 0.960915 0.20326  -0.136633051948
 Cl1 0.409641 0.74058 0.26013  -0.136633051948
 Cl1 0.90966 0.740613 0.26013  -0.136633051948
 Cl1 0.065212 0.461087 0.79687  -0.136633051948
 Cl1 0.565211 0.461071 0.7968  -0.136633051948
 O1 0.283492 0.277884 0.47037  -0.630365194805
 O1 0.783511 0.277889 0.47038  -0.630365194805
 O1 0.348079 0.351324 0.55479  -0.630365194805
 O1 0.848132 0.351303 0.55480  -0.630365194805
 O1 0.178886 0.024881 0.52608  -0.630365194805
 O1 0.678889 0.024887 0.52608  -0.630365194805
 O1 0.224946 0.963751 0.62567  -0.630365194805
 O1 0.724948 0.963761 0.62567  -0.630365194805
 O1 0.181512 0.305549 0.3046  -0.630365194805
 O1 0.681516 0.305546 0.30469  -0.630365194805
 O1 0.158051 0.361474 0.39899  -0.630365194805
 O1 0.658046 0.361468 0.39901  -0.630365194805
 O1 0.422467 0.381847 0.42384  -0.630365194805
 O1 0.92248 0.381856 0.42385  -0.630365194805
 O1 0.342697 0.318177 0.34507  -0.630365194805
 O1 0.842682 0.318301 0.34503  -0.630365194805
 O2 0.283629 0.183796 0.93825  -0.575118051948
 O2 0.78362 0.183795 0.93825  -0.575118051948
 O2 0.416604 0.366595 0.97171  -0.575118051948
 O2 0.916601 0.36659 0.97170  -0.575118051948
 O1 0.216622 0.777885 0.52949  -0.630365194805
 O1 0.716595 0.777881 0.52953  -0.630365194805
 O1 0.152009 0.851292 0.44506  -0.630365194805
 O1 0.651987 0.851289 0.44510  -0.630365194805
 O1 0.321298 0.524991 0.47386  -0.630365194805
 O1 0.821286 0.52499 0.47390  -0.630365194805
 O1 0.275032 0.463948 0.37436  -0.630365194805
 O1 0.775022 0.463962 0.37439  -0.630365194805
 O1 0.31843 0.805553 0.6952  -0.630365194805
 O1 0.818445 0.805557 0.69525  -0.630365194805
 O1 0.341965 0.8615 0.60089  -0.630365194805
 O1 0.841957 0.8615 0.60089  -0.630365194805
 O1 0.077553 0.881821 0.57601  -0.630365194805
 O1 0.577563 0.881825 0.57606  -0.630365194805
 O1 0.157072 0.8171 0.65430  -0.630365194805
 O1 0.657095 0.817195 0.65440  -0.630365194805
 O2 0.216349 0.683803 0.06172  -0.575118051948
 O2 0.716352 0.683799 0.06175  -0.575118051948
 O2 0.083401 0.866638 0.02817  -0.575118051948
 O2 0.5834 0.86661 0.028  -0.575118051948
