#======================================================================

# CRYSTAL DATA

#----------------------------------------------------------------------

data_VESTA_phase_1


_pd_phase_name                         MOF
_cell_length_a                         13.25400
_cell_length_b                         13.18600
_cell_length_c                         13.15600
_cell_angle_alpha                      93.74100
_cell_angle_beta                       96.04100
_cell_angle_gamma                      83.68700
_symmetry_space_group_name_H-M         "P 1"
_symmetry_Int_Tables_number            1

loop_
_symmetry_equiv_pos_as_xyz
   "x, y, z"

loop_
   _atom_site_label
   _atom_site_fract_x
   _atom_site_fract_y
   _atom_site_fract_z
 _atom_site_charge
 Zn1 0.169399 0.159816 0.72472  0.839712160494
 Zn1 0.325126 0.724798 0.15899  0.839712160494
 Zn1 0.826668 0.840485 0.27522  0.839712160494
 Zn1 0.67124 0.275155 0.84001  0.839712160494
 H1 0.39532 0.184343 0.73128  0.103940569585
 H1 0.541854 0.117227 0.64042  0.103940569585
 H1 0.337762 0.936597 0.44181  0.103940569585
 H1 0.199719 0.013088 0.54080  0.103940569585
 H1 0.975229 0.216957 0.58960  0.103940569585
 H1 0.898886 0.358054 0.48368  0.103940569585
 H1 0.154141 0.524491 0.60155  0.103940569585
 H1 0.219983 0.374306 0.70294  0.103940569585
 H1 0.062532 0.862777 0.70156  0.103940569585
 H1 0.959563 0.71871 0.7018  0.103940569585
 H1 0.699975 0.931526 0.76872  0.103940569585
 H1 0.099503 0.732192 0.18143  0.103940569585
 H1 0.953852 0.64044 0.11582  0.103940569585
 H1 0.159679 0.440259 0.93666  0.103940569585
 H1 0.29695 0.539924 0.01184  0.103940569585
 H1 0.521641 0.591191 0.21595  0.103940569585
 H1 0.599522 0.486317 0.35730  0.103940569585
 H1 0.341265 0.599081 0.52365  0.103940569585
 H1 0.274407 0.700036 0.37368  0.103940569585
 H1 0.436769 0.703324 0.86167  0.103940569585
 H1 0.541548 0.701617 0.71785  0.103940569585
 H1 0.798516 0.77005 0.93194  0.103940569585
 H1 0.601144 0.816282 0.26890  0.103940569585
 H1 0.454783 0.882957 0.36034  0.103940569585
 H1 0.658953 0.063623 0.5587  0.103940569585
 H1 0.796939 0.987305 0.45946  0.103940569585
 H1 0.022042 0.782668 0.40892  0.103940569585
 H1 0.09902 0.641219 0.51405  0.103940569585
 H1 0.841686 0.476346 0.39955  0.103940569585
 H1 0.775773 0.626388 0.29819  0.103940569585
 H1 0.93581 0.137776 0.3003  0.103940569585
 H1 0.039274 0.281514 0.29936  0.103940569585
 H1 0.297615 0.067839 0.2308  0.103940569585
 H1 0.897229 0.267105 0.81798  0.103940569585
 H1 0.04299 0.358452 0.883  0.103940569585
 H1 0.837418 0.5582 0.0638  0.103940569585
 H1 0.700055 0.458914 0.98826  0.103940569585
 H1 0.474928 0.407181 0.7819  0.103940569585
 H1 0.397067 0.511757 0.64031  0.103940569585
 H1 0.657823 0.402547 0.47619  0.103940569585
 H1 0.723979 0.30072 0.62589  0.103940569585
 H1 0.56164 0.294716 0.13674  0.103940569585
 H1 0.457754 0.295803 0.28092  0.103940569585
 H1 0.199458 0.22899 0.06782  0.103940569585
 C1 0.384999 0.131195 0.66508  0.181673410494
 C2 0.467954 0.09164 0.61335  -0.155332839506
 C3 0.455182 0.020784 0.52979  0.0292311604938
 C2 0.356196 0.991706 0.50442  -0.155332839506
 C1 0.276837 0.034573 0.5594  0.181673410494
 C1 0.013191 0.286135 0.58884  0.181673410494
 C2 0.970686 0.366779 0.53000  -0.155332839506
 C3 0.019684 0.456229 0.53094  0.0292311604938
 C2 0.111307 0.458169 0.59476  -0.155332839506
 C1 0.149989 0.374752 0.65120  0.181673410494
 C4 0.010076 0.060446 0.73149  0.692072160494
 C3 0.940342 0.977969 0.72928  0.0292311604938
 C2 0.982306 0.876755 0.71468  -0.155332839506
 C2 0.92386 0.795697 0.71624  -0.155332839506
 C3 0.821352 0.813946 0.73569  0.0292311604938
 C2 0.779304 0.915342 0.75259  -0.155332839506
 C3 0.836822 0.997544 0.74719  0.0292311604938
 C4 0.783316 0.104993 0.7493  0.692072160494
 C5 0.812291 0.619425 0.73607  0.696612160494
 C1 0.110437 0.665445 0.1289  0.181673410494
 C2 0.02799 0.613264 0.09023  -0.155332839506
 C3 0.041473 0.529018 0.02023  0.0292311604938
 C2 0.140728 0.503481 0.99109  -0.155332839506
 C1 0.219607 0.558863 0.03321  0.181673410494
 C1 0.483401 0.589597 0.28517  0.181673410494
 C2 0.526778 0.5313 0.36600  -0.155332839506
 C3 0.47744 0.531063 0.45555  0.0292311604938
 C2 0.384573 0.59327 0.4573  -0.155332839506
 C1 0.345149 0.649266 0.37380  0.181673410494
 C4 0.487239 0.734695 0.06048  0.692072160494
 C3 0.557601 0.731607 0.97764  0.0292311604938
 C2 0.516888 0.716267 0.87608  -0.155332839506
 C2 0.576354 0.716689 0.79506  -0.155332839506
 C3 0.678671 0.736071 0.81364  0.0292311604938
 C2 0.719395 0.753902 0.91535  -0.155332839506
 C3 0.661049 0.749265 0.99746  0.0292311604938
 C4 0.714348 0.751264 0.10495  0.692072160494
 C5 0.691853 0.732404 0.61850  0.696612160494
 C1 0.611538 0.869271 0.33524  0.181673410494
 C2 0.528692 0.908631 0.38722  -0.155332839506
 C3 0.541533 0.979427 0.47083  0.0292311604938
 C2 0.640518 0.0 0.49607  -0.155332839506
 C1 0.719809 0.965822 0.4409  0.181673410494
 C1 0.983845 0.713709 0.41014  0.181673410494
 C2 0.026662 0.632891 0.4686  -0.155332839506
 C3 0.977283 0.543759 0.46838  0.0292311604938
 C2 0.885014 0.542283 0.40555  -0.155332839506
 C1 0.846157 0.625776 0.34932  0.181673410494
 C4 0.987613 0.939572 0.26909  0.692072160494
 C3 0.057368 0.022182 0.27175  0.0292311604938
 C2 0.015903 0.123522 0.28676  -0.155332839506
 C2 0.074581 0.204396 0.28475  -0.155332839506
 C3 0.176851 0.185811 0.26450  0.0292311604938
 C2 0.218453 0.0843 0.24750  -0.155332839506
 C3 0.160744 0.002341 0.25328  0.0292311604938
 C4 0.214305 0.894946 0.25066  0.692072160494
 C5 0.187369 0.380323 0.26379  0.696612160494
 C1 0.886372 0.333663 0.87067  0.181673410494
 C2 0.968903 0.385648 0.90959  -0.155332839506
 C3 0.955532 0.469714 0.97982  0.0292311604938
 C2 0.856337 0.49519 0.  -0.155332839506
 C1 0.777376 0.440005 0.96683  0.181673410494
 C1 0.513539 0.409269 0.71300  0.181673410494
 C2 0.47033 0.467588 0.63215  -0.155332839506
 C3 0.520407 0.468744 0.54318  0.0292311604938
 C2 0.613812 0.407352 0.54194  -0.155332839506
 C1 0.652897 0.351022 0.6253  0.181673410494
 C4 0.510007 0.26467 0.93802  0.692072160494
 C3 0.440108 0.267298 0.02115  0.0292311604938
 C2 0.481449 0.281981 0.12256  -0.155332839506
 C2 0.422404 0.28126 0.20385  -0.155332839506
 C3 0.319864 0.262511 0.18571  0.0292311604938
 C2 0.278672 0.244888 0.08416  -0.155332839506
 C3 0.336681 0.24961 0.00186  0.0292311604938
 C4 0.283298 0.247961 0.89453  0.692072160494
 C5 0.30745 0.266972 0.38050  0.696612160494
 C6 0.750805 0.727487 0.72792  -0.307867839506
 C6 0.247972 0.271714 0.27165  -0.307867839506
 N1 0.290128 0.104133 0.63848  -0.321892839506
 N1 0.102252 0.289132 0.64853  -0.321892839506
 N1 0.205592 0.638568 0.10203  -0.321892839506
 N1 0.393181 0.647747 0.28805  -0.321892839506
 N1 0.706413 0.8964 0.36173  -0.321892839506
 N1 0.89422 0.711122 0.35133  -0.321892839506
 N1 0.791252 0.360542 0.89770  -0.321892839506
 N1 0.60414 0.351741 0.71056  -0.321892839506
 O1 0.994925 0.142419 0.78397  -0.632707839506
 O2 0.088956 0.040376 0.67999  -0.579817839506
 O1 0.782227 0.155339 0.67154  -0.632707839506
 O2 0.738221 0.134211 0.83020  -0.579817839506
 O1 0.5026 0.786862 0.14245  -0.632707839506
 O2 0.408236 0.683748 0.04040  -0.579817839506
 O1 0.715051 0.673814 0.15553  -0.632707839506
 O2 0.760266 0.831252 0.133  -0.579817839506
 O1 0.004305 0.857327 0.21752  -0.632707839506
 O2 0.907704 0.95962 0.31919  -0.579817839506
 O1 0.217338 0.844855 0.32887  -0.632707839506
 O2 0.257862 0.865574 0.16891  -0.579817839506
 O1 0.497174 0.209089 0.85792  -0.632707839506
 O2 0.586238 0.319708 0.95607  -0.579817839506
 O1 0.284692 0.324741 0.84348  -0.632707839506
 O2 0.235467 0.169102 0.86614  -0.579817839506
 F1 0.88401 0.617849 0.8177  -0.208854506173
 F1 0.862348 0.587259 0.65215  -0.208854506173
 F1 0.750625 0.546244 0.74711  -0.208854506173
 F1 0.61865 0.813002 0.6135  -0.208854506173
 F1 0.644329 0.647072 0.5873  -0.208854506173
 F1 0.755632 0.74254 0.54643  -0.208854506173
 F1 0.115691 0.382165 0.1821  -0.208854506173
 F1 0.13757 0.412667 0.34785  -0.208854506173
 F1 0.249301 0.453389 0.25285  -0.208854506173
 F1 0.38032 0.186327 0.38623  -0.208854506173
 F1 0.355648 0.352285 0.40907  -0.208854506173
 F1 0.244403 0.257762 0.45352  -0.208854506173
