#======================================================================

# CRYSTAL DATA

#----------------------------------------------------------------------

data_VESTA_phase_1


_pd_phase_name                         MOF
_cell_length_a                         9.89800
_cell_length_b                         16.55800
_cell_length_c                         12.18700
_cell_angle_alpha                      89.96500
_cell_angle_beta                       89.97100
_cell_angle_gamma                      91.59200
_symmetry_space_group_name_H-M         "P 1"
_symmetry_Int_Tables_number            1

loop_
_symmetry_equiv_pos_as_xyz
   "x, y, z"

loop_
   _atom_site_label
   _atom_site_fract_x
   _atom_site_fract_y
   _atom_site_fract_z
 _atom_site_charge
 Al1 0.382295 0.430835 0.24998  2.01272722222
 Al1 0.38229 0.930822 0.24998  2.01272722222
 Al1 0.882278 0.430835 0.24998  2.01272722222
 Al1 0.882273 0.930821 0.24998  2.01272722222
 Al1 0.117683 0.069148 0.74999  2.01272722222
 Al1 0.117678 0.569134 0.74998  2.01272722222
 Al1 0.617665 0.069148 0.74998  2.01272722222
 Al1 0.61766 0.569134 0.74999  2.01272722222
 Al2 0.249992 0.999998 0.49998  1.93657722222
 Al2 0.249986 0.499984 0.49998  1.93657722222
 Al2 0.749974 0.999998 0.49998  1.93657722222
 Al2 0.749969 0.499985 0.49998  1.93657722222
 Al2 0.249991 0.0 0.  1.93657722222
 Al2 0.249987 0.499987 0.  1.93657722222
 Al2 0.749975 0.0 0.99999  1.93657722222
 Al2 0.749969 0.499983 0.99997  1.93657722222
 P1 0.495116 0.38377 0.48173  1.70001722222
 P1 0.495109 0.883755 0.48173  1.70001722222
 P1 0.995097 0.383769 0.48173  1.70001722222
 P1 0.995093 0.883756 0.48173  1.70001722222
 P1 0.004987 0.11628 0.98170  1.70001722222
 P1 0.00498 0.616266 0.98170  1.70001722222
 P1 0.504968 0.116279 0.98170  1.70001722222
 P1 0.504965 0.616267 0.98170  1.70001722222
 P1 0.004862 0.116212 0.51823  1.70001722222
 P1 0.004858 0.6162 0.51823  1.70001722222
 P1 0.504846 0.116213 0.51823  1.70001722222
 P1 0.504839 0.616199 0.51823  1.70001722222
 P1 0.494992 0.383703 0.01827  1.70001722222
 P1 0.494988 0.88369 0.01827  1.70001722222
 P1 0.994976 0.383704 0.01827  1.70001722222
 P1 0.994969 0.883689 0.01827  1.70001722222
 H1 0.351401 0.271568 0.52418  0.163222222222
 H1 0.351395 0.771554 0.52418  0.163222222222
 H1 0.851383 0.271567 0.52418  0.163222222222
 H1 0.851378 0.771555 0.52418  0.163222222222
 H1 0.486069 0.282218 0.61858  0.163222222222
 H1 0.486064 0.782205 0.61858  0.163222222222
 H1 0.986052 0.282218 0.61858  0.163222222222
 H1 0.986047 0.782204 0.61858  0.163222222222
 H1 0.14852 0.228449 0.02437  0.163222222222
 H1 0.148515 0.728435 0.02436  0.163222222222
 H1 0.648503 0.228449 0.02436  0.163222222222
 H1 0.648498 0.728436 0.02437  0.163222222222
 H1 0.013582 0.217716 0.11863  0.163222222222
 H1 0.013577 0.717703 0.11863  0.163222222222
 H1 0.513565 0.217716 0.11863  0.163222222222
 H1 0.513559 0.717702 0.11863  0.163222222222
 H1 0.148577 0.228415 0.47579  0.163222222222
 H1 0.148572 0.728402 0.47578  0.163222222222
 H1 0.648559 0.228415 0.47578  0.163222222222
 H1 0.648554 0.728401 0.47579  0.163222222222
 H1 0.013909 0.217765 0.38139  0.163222222222
 H1 0.013903 0.717751 0.3813  0.163222222222
 H1 0.513891 0.217765 0.38139  0.163222222222
 H1 0.513886 0.717752 0.38139  0.163222222222
 H1 0.351458 0.271534 0.97560  0.163222222222
 H1 0.351453 0.771521 0.97560  0.163222222222
 H1 0.851441 0.271534 0.97560  0.163222222222
 H1 0.851435 0.77152 0.97560  0.163222222222
 H1 0.486396 0.282267 0.88133  0.163222222222
 H1 0.486391 0.782253 0.8813  0.163222222222
 H1 0.986379 0.282267 0.8813  0.163222222222
 H1 0.986375 0.782254 0.88133  0.163222222222
 C1 0.461141 0.282382 0.53064  -0.481902777778
 C1 0.461136 0.782368 0.53065  -0.481902777778
 C1 0.961124 0.282382 0.53065  -0.481902777778
 C1 0.961119 0.782368 0.53064  -0.481902777778
 C1 0.038768 0.217603 0.03073  -0.481902777778
 C1 0.038763 0.717589 0.03073  -0.481902777778
 C1 0.538751 0.217602 0.03073  -0.481902777778
 C1 0.538746 0.717589 0.03073  -0.481902777778
 C1 0.038836 0.217601 0.46932  -0.481902777778
 C1 0.038832 0.717588 0.46932  -0.481902777778
 C1 0.538819 0.217601 0.46932  -0.481902777778
 C1 0.538814 0.717587 0.46932  -0.481902777778
 C1 0.46121 0.28238 0.96923  -0.481902777778
 C1 0.461205 0.782367 0.96924  -0.481902777778
 C1 0.961193 0.282381 0.96924  -0.481902777778
 C1 0.961187 0.782367 0.96923  -0.481902777778
 O1 0.399362 0.440576 0.54057  -0.965136111111
 O1 0.399357 0.940562 0.5405  -0.965136111111
 O1 0.899345 0.440576 0.5405  -0.965136111111
 O1 0.899339 0.940562 0.54057  -0.965136111111
 O1 0.144621 0.403682 0.50383  -0.965136111111
 O1 0.144617 0.903669 0.50383  -0.965136111111
 O1 0.644604 0.403683 0.50383  -0.965136111111
 O1 0.644598 0.903669 0.50383  -0.965136111111
 O1 0.469061 0.380187 0.35445  -0.965136111111
 O1 0.469049 0.88017 0.35445  -0.965136111111
 O1 0.969037 0.380183 0.35445  -0.965136111111
 O1 0.969039 0.880174 0.35445  -0.965136111111
 O1 0.100598 0.059389 0.0405  -0.965136111111
 O1 0.100593 0.559377 0.04058  -0.965136111111
 O1 0.600581 0.05939 0.04058  -0.965136111111
 O1 0.600575 0.559376 0.0405  -0.965136111111
 O1 0.355433 0.096286 0.00364  -0.965136111111
 O1 0.355429 0.596273 0.0036  -0.965136111111
 O1 0.855416 0.096287 0.00363  -0.965136111111
 O1 0.85541 0.596273 0.00364  -0.965136111111
 O1 0.031526 0.120173 0.85446  -0.965136111111
 O1 0.031514 0.620155 0.85446  -0.965136111111
 O1 0.531501 0.120169 0.85446  -0.965136111111
 O1 0.531503 0.620159 0.85446  -0.965136111111
 O1 0.100616 0.059407 0.45939  -0.965136111111
 O1 0.10061 0.559393 0.45939  -0.965136111111
 O1 0.600598 0.059407 0.45939  -0.965136111111
 O1 0.600593 0.559394 0.45939  -0.965136111111
 O1 0.355357 0.096301 0.49614  -0.965136111111
 O1 0.355351 0.596287 0.49614  -0.965136111111
 O1 0.855338 0.0963 0.49614  -0.965136111111
 O1 0.855334 0.596287 0.49614  -0.965136111111
 O1 0.030915 0.119794 0.64552  -0.965136111111
 O1 0.030917 0.619785 0.6455  -0.965136111111
 O1 0.530905 0.119798 0.6455  -0.965136111111
 O1 0.530893 0.619781 0.64552  -0.965136111111
 O1 0.399381 0.440593 0.95938  -0.965136111111
 O1 0.399375 0.940579 0.95938  -0.965136111111
 O1 0.899363 0.440593 0.95938  -0.965136111111
 O1 0.899359 0.94058 0.95938  -0.965136111111
 O1 0.144546 0.403697 0.99633  -0.965136111111
 O1 0.14454 0.903683 0.99633  -0.965136111111
 O1 0.644527 0.403696 0.99633  -0.965136111111
 O1 0.644523 0.903683 0.99633  -0.965136111111
 O1 0.468454 0.379811 0.14550  -0.965136111111
 O1 0.468456 0.879802 0.14550  -0.965136111111
 O1 0.968443 0.379815 0.14550  -0.965136111111
 O1 0.968431 0.879797 0.14550  -0.965136111111
 F1 0.283789 0.482771 0.34695  -0.623802777778
 F1 0.283785 0.982758 0.34695  -0.623802777778
 F1 0.783772 0.482772 0.34695  -0.623802777778
 F1 0.783767 0.982758 0.34695  -0.623802777778
 F1 0.216187 0.017198 0.84694  -0.623802777778
 F1 0.216182 0.517185 0.84694  -0.623802777778
 F1 0.71617 0.017198 0.84694  -0.623802777778
 F1 0.716164 0.517185 0.84694  -0.623802777778
 F1 0.216189 0.017212 0.65301  -0.623802777778
 F1 0.216183 0.517198 0.65301  -0.623802777778
 F1 0.716171 0.017211 0.65301  -0.623802777778
 F1 0.716166 0.517198 0.65301  -0.623802777778
 F1 0.283791 0.482785 0.15302  -0.623802777778
 F1 0.283786 0.982771 0.15302  -0.623802777778
 F1 0.783774 0.482784 0.15302  -0.623802777778
 F1 0.783769 0.982771 0.15302  -0.623802777778
