#======================================================================

# CRYSTAL DATA

#----------------------------------------------------------------------

data_VESTA_phase_1


_pd_phase_name                         MOF
_cell_length_a                         19.59700
_cell_length_b                         14.25500
_cell_length_c                         14.26100
_cell_angle_alpha                      102.69200
_cell_angle_beta                       103.34900
_cell_angle_gamma                      103.22000
_symmetry_space_group_name_H-M         "P 1"
_symmetry_Int_Tables_number            1

loop_
_symmetry_equiv_pos_as_xyz
   "x, y, z"

loop_
   _atom_site_label
   _atom_site_fract_x
   _atom_site_fract_y
   _atom_site_fract_z
 _atom_site_charge
 Zn1 0.452477 0.834943 0.27133  0.927520887097
 Zn1 0.952485 0.834946 0.27133  0.927520887097
 Zn1 0.297437 0.728719 0.16498  0.927520887097
 Zn1 0.79744 0.728723 0.16498  0.927520887097
 Zn1 0.047487 0.165047 0.72867  0.927520887097
 Zn1 0.547498 0.165049 0.72867  0.927520887097
 Zn1 0.202533 0.271273 0.83502  0.927520887097
 Zn1 0.702534 0.271279 0.8350  0.927520887097
 H1 0.036995 0.914317 0.49039  0.108546824597
 H1 0.536995 0.914527 0.49040  0.108546824597
 H1 0.165274 0.983523 0.59617  0.108546824597
 H1 0.665269 0.983774 0.59618  0.108546824597
 H1 0.22853 0.962918 0.32175  0.108546824597
 H1 0.728544 0.962592 0.32173  0.108546824597
 H1 0.096714 0.898238 0.22833  0.108546824597
 H1 0.596727 0.897998 0.22831  0.108546824597
 H1 0.033189 0.545769 0.27104  0.108546824597
 H1 0.533199 0.545763 0.27104  0.108546824597
 H1 0.012488 0.352387 0.25743  0.108546824597
 H1 0.512496 0.352382 0.25744  0.108546824597
 H1 0.232694 0.000511 0.07673  0.108546824597
 H1 0.732694 0.000518 0.07674  0.108546824597
 H1 0.26031 0.186757 0.06490  0.108546824597
 H1 0.760311 0.186761 0.06490  0.108546824597
 H1 0.213081 0.509611 0.08653  0.108546824597
 H1 0.713089 0.509612 0.08648  0.108546824597
 H1 0.084855 0.403851 0.01772  0.108546824597
 H1 0.584865 0.403853 0.01765  0.108546824597
 H1 0.021283 0.678111 0.03525  0.108546824597
 H1 0.521285 0.678118 0.03534  0.108546824597
 H1 0.153041 0.771498 0.10016  0.108546824597
 H1 0.653043 0.771506 0.10021  0.108546824597
 H1 0.216976 0.729236 0.45390  0.108546824597
 H1 0.716979 0.729236 0.45390  0.108546824597
 H1 0.237647 0.742909 0.64726  0.108546824597
 H1 0.737652 0.742899 0.64725  0.108546824597
 H1 0.017291 0.923151 0.99987  0.108546824597
 H1 0.517295 0.923145 0.99988  0.108546824597
 H1 0.489894 0.934947 0.8136  0.108546824597
 H1 0.989902 0.934944 0.81363  0.108546824597
 H1 0.462944 0.086847 0.50968  0.108546824597
 H1 0.962942 0.087071 0.50969  0.108546824597
 H1 0.33465 0.017826 0.40388  0.108546824597
 H1 0.834643 0.018097 0.40389  0.108546824597
 H1 0.271498 0.035349 0.67814  0.108546824597
 H1 0.771512 0.03499 0.67811  0.108546824597
 H1 0.40331 0.100423 0.77158  0.108546824597
 H1 0.903323 0.100146 0.77155  0.108546824597
 H1 0.466793 0.454273 0.72899  0.108546824597
 H1 0.966802 0.454267 0.72899  0.108546824597
 H1 0.487521 0.647647 0.74255  0.108546824597
 H1 0.987529 0.647641 0.74255  0.108546824597
 H1 0.267304 0.99951 0.92326  0.108546824597
 H1 0.767297 0.999522 0.9232  0.108546824597
 H1 0.239715 0.813263 0.93509  0.108546824597
 H1 0.739714 0.813273 0.93510  0.108546824597
 H1 0.286857 0.490456 0.91473  0.108546824597
 H1 0.786862 0.490466 0.91483  0.108546824597
 H1 0.415065 0.596197 0.98375  0.108546824597
 H1 0.915069 0.596202 0.98387  0.108546824597
 H1 0.478744 0.321764 0.96286  0.108546824597
 H1 0.978751 0.321752 0.96271  0.108546824597
 H1 0.346983 0.228395 0.898  0.108546824597
 H1 0.84699 0.228389 0.89827  0.108546824597
 H1 0.283012 0.270786 0.54613  0.108546824597
 H1 0.783015 0.270784 0.54613  0.108546824597
 H1 0.262364 0.257068 0.35277  0.108546824597
 H1 0.762367 0.257065 0.35277  0.108546824597
 H1 0.482705 0.076842 0.00015  0.108546824597
 H1 0.982702 0.076847 0.00016  0.108546824597
 H1 0.010122 0.065043 0.18640  0.108546824597
 H1 0.510133 0.065041 0.18639  0.108546824597
 C1 0.081388 0.926912 0.4564  0.163925887097
 C1 0.581389 0.927016 0.4564  0.163925887097
 C2 0.154221 0.965065 0.51503  -0.119825362903
 C2 0.654222 0.965179 0.51503  -0.119825362903
 C3 0.210738 0.979791 0.46966  0.0995958870968
 C3 0.710743 0.979749 0.46965  0.0995958870968
 C2 0.188947 0.954747 0.36394  -0.119825362903
 C2 0.688958 0.954575 0.36392  -0.119825362903
 C1 0.114958 0.917584 0.31019  0.163925887097
 C1 0.614968 0.917433 0.3101  0.163925887097
 C4 0.4028 0.610706 0.21290  0.697003387097
 C4 0.902802 0.610707 0.21289  0.697003387097
 C5 0.414956 0.512678 0.21527  -0.115747237903
 C5 0.914958 0.512683 0.21528  -0.115747237903
 C2 0.479872 0.4893 0.24555  -0.119825362903
 C2 0.979874 0.489306 0.24556  -0.119825362903
 C2 0.468588 0.386346 0.23877  -0.119825362903
 C2 0.968591 0.38635 0.23877  -0.119825362903
 C5 0.394632 0.330758 0.2029  -0.115747237903
 C5 0.894635 0.330761 0.20293  -0.115747237903
 C5 0.361867 0.224623 0.18701  -0.115747237903
 C5 0.861871 0.224628 0.18701  -0.115747237903
 C5 0.336095 0.047058 0.19486  -0.115747237903
 C5 0.836099 0.047064 0.19487  -0.115747237903
 C2 0.280753 0.061818 0.12453  -0.119825362903
 C2 0.780756 0.061823 0.12454  -0.119825362903
 C2 0.295412 0.161629 0.11894  -0.119825362903
 C2 0.795414 0.161634 0.11895  -0.119825362903
 C4 0.34492 0.950919 0.2103  0.697003387097
 C4 0.844924 0.950926 0.21038  0.697003387097
 C1 0.168632 0.543566 0.07345  0.163925887097
 C1 0.668639 0.543568 0.07342  0.163925887097
 C2 0.09583 0.484964 0.03538  -0.119825362903
 C2 0.595836 0.484967 0.03536  -0.119825362903
 C3 0.039226 0.530296 0.01997  0.0995958870968
 C3 0.539231 0.530299 0.01997  0.0995958870968
 C2 0.060926 0.635953 0.04416  -0.119825362903
 C2 0.560929 0.63596 0.04421  -0.119825362903
 C1 0.134888 0.689687 0.08138  0.163925887097
 C1 0.634891 0.689693 0.08141  0.163925887097
 C4 0.347308 0.787092 0.38929  0.697003387097
 C4 0.847311 0.787111 0.38929  0.697003387097
 C5 0.335192 0.784891 0.48730  -0.115747237903
 C5 0.835194 0.78491 0.48730  -0.115747237903
 C2 0.270291 0.754718 0.51052  -0.119825362903
 C2 0.770294 0.754711 0.51051  -0.119825362903
 C2 0.281573 0.761515 0.61346  -0.119825362903
 C2 0.781578 0.761517 0.61346  -0.119825362903
 C5 0.355522 0.797282 0.66926  -0.115747237903
 C5 0.855526 0.797292 0.66926  -0.115747237903
 C5 0.388233 0.813161 0.77546  -0.115747237903
 C5 0.888238 0.813167 0.77546  -0.115747237903
 C5 0.413823 0.80535 0.95305  -0.115747237903
 C5 0.913826 0.805365 0.95305  -0.115747237903
 C2 0.469257 0.87544 0.93844  -0.119825362903
 C2 0.969266 0.875443 0.93844  -0.119825362903
 C2 0.454706 0.881033 0.83863  -0.119825362903
 C2 0.954712 0.881038 0.83863  -0.119825362903
 C4 0.404954 0.789939 0.04913  0.697003387097
 C4 0.904963 0.789951 0.04913  0.697003387097
 C1 0.418565 0.073694 0.54361  0.163925887097
 C1 0.918565 0.073813 0.54361  0.163925887097
 C2 0.345733 0.035555 0.48500  -0.119825362903
 C2 0.845734 0.035671 0.48500  -0.119825362903
 C3 0.289241 0.020032 0.53032  0.0995958870968
 C3 0.789246 0.020001 0.53032  0.0995958870968
 C2 0.311061 0.044316 0.63600  -0.119825362903
 C2 0.811072 0.044111 0.63598  -0.119825362903
 C1 0.385047 0.081607 0.68975  0.163925887097
 C1 0.885056 0.081437 0.68974  0.163925887097
 C4 0.097178 0.389296 0.78715  0.697003387097
 C4 0.597182 0.3893 0.78714  0.697003387097
 C5 0.085029 0.487334 0.78480  -0.115747237903
 C5 0.585032 0.48734 0.78480  -0.115747237903
 C2 0.020121 0.510721 0.75448  -0.119825362903
 C2 0.520124 0.510727 0.75448  -0.119825362903
 C2 0.031419 0.613673 0.76124  -0.119825362903
 C2 0.531423 0.613679 0.76124  -0.119825362903
 C5 0.105378 0.66925 0.79709  -0.115747237903
 C5 0.605382 0.669257 0.7970  -0.115747237903
 C5 0.138145 0.77538 0.81299  -0.115747237903
 C5 0.638147 0.775389 0.81299  -0.115747237903
 C5 0.163902 0.952939 0.80512  -0.115747237903
 C5 0.663902 0.952946 0.80512  -0.115747237903
 C2 0.219251 0.938193 0.87545  -0.119825362903
 C2 0.719252 0.9382 0.87546  -0.119825362903
 C2 0.204602 0.838383 0.88105  -0.119825362903
 C2 0.704601 0.838393 0.88106  -0.119825362903
 C4 0.155067 0.049079 0.78962  0.697003387097
 C4 0.655063 0.049086 0.78963  0.697003387097
 C1 0.331319 0.456452 0.92721  0.163925887097
 C1 0.831324 0.456457 0.92725  0.163925887097
 C2 0.404123 0.515054 0.96528  -0.119825362903
 C2 0.904127 0.515057 0.96534  -0.119825362903
 C3 0.460752 0.469677 0.97985  0.0995958870968
 C3 0.960758 0.469674 0.97982  0.0995958870968
 C2 0.439081 0.36397 0.95481  -0.119825362903
 C2 0.939088 0.363964 0.95474  -0.119825362903
 C1 0.365116 0.310243 0.91774  0.163925887097
 C1 0.865122 0.31024 0.91766  0.163925887097
 C4 0.15267 0.212943 0.61072  0.697003387097
 C4 0.652672 0.212953 0.61072  0.697003387097
 C5 0.164792 0.215167 0.51272  -0.115747237903
 C5 0.664795 0.215187 0.51272  -0.115747237903
 C2 0.229702 0.245312 0.48951  -0.119825362903
 C2 0.729705 0.245315 0.48951  -0.119825362903
 C2 0.218432 0.238489 0.38657  -0.119825362903
 C2 0.718435 0.238492 0.38656  -0.119825362903
 C5 0.144486 0.202727 0.33076  -0.115747237903
 C5 0.644489 0.202737 0.3307  -0.115747237903
 C5 0.111777 0.186828 0.22455  -0.115747237903
 C5 0.61178 0.18684 0.22455  -0.115747237903
 C5 0.08617 0.194622 0.04696  -0.115747237903
 C5 0.586178 0.194634 0.04696  -0.115747237903
 C2 0.03074 0.124542 0.06158  -0.119825362903
 C2 0.53075 0.124545 0.06157  -0.119825362903
 C2 0.045302 0.118955 0.161  -0.119825362903
 C2 0.54531 0.118959 0.16139  -0.119825362903
 C4 0.095023 0.21005 0.95088  0.697003387097
 C4 0.595037 0.210058 0.95088  0.697003387097
 S1 0.339627 0.407488 0.17859  0.120983387097
 S1 0.83963 0.407493 0.17860  0.120983387097
 S1 0.405353 0.15877 0.25793  0.120983387097
 S1 0.905361 0.158774 0.2579  0.120983387097
 S1 0.410509 0.82155 0.59268  0.120983387097
 S1 0.91051 0.821562 0.5926  0.120983387097
 S1 0.344622 0.742414 0.84115  0.120983387097
 S1 0.844625 0.742423 0.84115  0.120983387097
 S1 0.160369 0.592512 0.82147  0.120983387097
 S1 0.660372 0.592518 0.8214  0.120983387097
 S1 0.094652 0.841221 0.74206  0.120983387097
 S1 0.59466 0.841224 0.74205  0.120983387097
 S1 0.089487 0.1785 0.40732  0.120983387097
 S1 0.589489 0.178521 0.40732  0.120983387097
 S1 0.155386 0.257552 0.15885  0.120983387097
 S1 0.655387 0.257574 0.15885  0.120983387097
 N1 0.06133 0.903049 0.35495  -0.303159112903
 N1 0.561334 0.90304 0.35495  -0.303159112903
 N1 0.188608 0.644986 0.09662  -0.303159112903
 N1 0.688613 0.64499 0.09662  -0.303159112903
 N1 0.438648 0.096887 0.64503  -0.303159112903
 N1 0.938653 0.096869 0.64503  -0.303159112903
 N1 0.311369 0.354994 0.90332  -0.303159112903
 N1 0.811373 0.354995 0.90331  -0.303159112903
 O1 0.458657 0.687217 0.23868  -0.593554112903
 O1 0.958659 0.687221 0.23869  -0.593554112903
 O1 0.414591 0.815011 0.39052  -0.593554112903
 O1 0.914593 0.815008 0.39052  -0.593554112903
 O1 0.406258 0.954724 0.26912  -0.593554112903
 O1 0.906271 0.954726 0.2691  -0.593554112903
 O1 0.29102 0.871916 0.16257  -0.593554112903
 O1 0.791015 0.871926 0.16260  -0.593554112903
 O1 0.291388 0.761287 0.31272  -0.593554112903
 O1 0.791389 0.76128 0.31272  -0.593554112903
 O1 0.335486 0.609538 0.18483  -0.593554112903
 O1 0.835488 0.609541 0.18483  -0.593554112903
 O1 0.343633 0.731314 0.04522  -0.593554112903
 O1 0.843639 0.731336 0.04522  -0.593554112903
 O1 0.458846 0.83769 0.12822  -0.593554112903
 O1 0.95886 0.837689 0.12822  -0.593554112903
 O1 0.041315 0.31278 0.76132  -0.593554112903
 O1 0.54132 0.312784 0.7613  -0.593554112903
 O1 0.085386 0.185009 0.60949  -0.593554112903
 O1 0.585386 0.185018 0.60948  -0.593554112903
 O1 0.093722 0.045272 0.73088  -0.593554112903
 O1 0.59374 0.04527 0.73083  -0.593554112903
 O1 0.208963 0.128081 0.8374  -0.593554112903
 O1 0.70895 0.128093 0.83746  -0.593554112903
 O1 0.208587 0.238709 0.68728  -0.593554112903
 O1 0.708588 0.238705 0.68728  -0.593554112903
 O1 0.164489 0.390456 0.81520  -0.593554112903
 O1 0.664493 0.390462 0.81519  -0.593554112903
 O1 0.156351 0.26864 0.95478  -0.593554112903
 O1 0.656352 0.268685 0.95478  -0.593554112903
 O1 0.041117 0.162322 0.87179  -0.593554112903
 O1 0.541142 0.1623 0.87178  -0.593554112903
