#======================================================================

# CRYSTAL DATA

#----------------------------------------------------------------------

data_VESTA_phase_1


_pd_phase_name                         MOF
_cell_length_a                         23.83000
_cell_length_b                         23.83100
_cell_length_c                         15.27000
_cell_angle_alpha                      109.83000
_cell_angle_beta                       109.89600
_cell_angle_gamma                      97.19300
_symmetry_space_group_name_H-M         "P 1"
_symmetry_Int_Tables_number            1

loop_
_symmetry_equiv_pos_as_xyz
   "x, y, z"

loop_
   _atom_site_label
   _atom_site_fract_x
   _atom_site_fract_y
   _atom_site_fract_z
 _atom_site_charge
 Cd1 0.39092 0.010326 0.78210  1.02701157895
 Cd1 0.390913 0.510426 0.78217  1.02701157895
 Cd1 0.890798 0.010346 0.78212  1.02701157895
 Cd1 0.890739 0.510302 0.78199  1.02701157895
 Cd1 0.489905 0.109238 0.71805  1.02701157895
 Cd1 0.49002 0.609123 0.71809  1.02701157895
 Cd1 0.989818 0.109292 0.71796  1.02701157895
 Cd1 0.989817 0.609111 0.71797  1.02701157895
 Cd1 0.109222 0.489679 0.2180  1.02701157895
 Cd1 0.10916 0.989633 0.21789  1.02701157895
 Cd1 0.609046 0.489549 0.21784  1.02701157895
 Cd1 0.609039 0.989653 0.21791  1.02701157895
 Cd1 0.010144 0.39087 0.28204  1.02701157895
 Cd1 0.01014 0.890687 0.28205  1.02701157895
 Cd1 0.509936 0.390855 0.28192  1.02701157895
 Cd1 0.510052 0.890741 0.28196  1.02701157895
 H1 0.401422 0.131375 0.81594  0.422431578947
 H1 0.401469 0.631444 0.81601  0.422431578947
 H1 0.901234 0.131372 0.81580  0.422431578947
 H1 0.901223 0.631337 0.81584  0.422431578947
 H2 0.058864 0.012771 0.0163  0.0899399122807
 H2 0.058796 0.512795 0.01647  0.0899399122807
 H2 0.558824 0.012806 0.01647  0.0899399122807
 H2 0.55883 0.512797 0.01639  0.0899399122807
 H2 0.094238 0.207672 0.08040  0.0899399122807
 H2 0.094182 0.707695 0.08047  0.0899399122807
 H2 0.594374 0.207705 0.08050  0.0899399122807
 H2 0.594491 0.707733 0.08062  0.0899399122807
 H2 0.146534 0.140171 0.31892  0.0899399122807
 H2 0.146524 0.640214 0.31901  0.0899399122807
 H2 0.646429 0.140199 0.31904  0.0899399122807
 H2 0.646406 0.640102 0.31902  0.0899399122807
 H2 0.449562 0.265212 0.07818  0.0899399122807
 H2 0.449527 0.765085 0.07818  0.0899399122807
 H2 0.949528 0.265234 0.07813  0.0899399122807
 H2 0.949461 0.765069 0.07806  0.0899399122807
 H2 0.44694 0.100678 0.13718  0.0899399122807
 H2 0.446951 0.600589 0.13730  0.0899399122807
 H2 0.946723 0.100653 0.13702  0.0899399122807
 H2 0.94666 0.600501 0.13699  0.0899399122807
 H2 0.02142 0.285821 0.37949  0.0899399122807
 H2 0.021396 0.785681 0.37943  0.0899399122807
 H2 0.521262 0.285868 0.37959  0.0899399122807
 H2 0.521368 0.785813 0.37962  0.0899399122807
 H1 0.368848 0.098919 0.68427  0.422431578947
 H1 0.368995 0.599149 0.68435  0.422431578947
 H1 0.868744 0.098908 0.68420  0.422431578947
 H1 0.868761 0.59897 0.68421  0.422431578947
 H2 0.487131 0.441262 0.48363  0.0899399122807
 H2 0.487154 0.94122 0.4836  0.0899399122807
 H2 0.987142 0.44124 0.48346  0.0899399122807
 H2 0.987165 0.941154 0.48357  0.0899399122807
 H2 0.292204 0.405852 0.41980  0.0899399122807
 H2 0.292214 0.905798 0.41969  0.0899399122807
 H2 0.792225 0.405696 0.41968  0.0899399122807
 H2 0.792244 0.905822 0.41977  0.0899399122807
 H2 0.359457 0.353421 0.18116  0.0899399122807
 H2 0.359524 0.853384 0.18113  0.0899399122807
 H2 0.859445 0.35336 0.18100  0.0899399122807
 H2 0.859463 0.853265 0.1811  0.0899399122807
 H2 0.234861 0.050387 0.42190  0.0899399122807
 H2 0.234935 0.550489 0.42192  0.0899399122807
 H2 0.734786 0.050353 0.4218  0.0899399122807
 H2 0.734789 0.550252 0.42177  0.0899399122807
 H2 0.39946 0.053398 0.36314  0.0899399122807
 H2 0.399472 0.55328 0.36299  0.0899399122807
 H2 0.899376 0.05338 0.36302  0.0899399122807
 H2 0.899352 0.553202 0.36291  0.0899399122807
 H2 0.214132 0.478421 0.12054  0.0899399122807
 H2 0.214157 0.97837 0.12058  0.0899399122807
 H2 0.714027 0.47829 0.12042  0.0899399122807
 H2 0.714066 0.978303 0.12047  0.0899399122807
 H1 0.098741 0.368644 0.18417  0.422431578947
 H1 0.098725 0.868606 0.18421  0.422431578947
 H1 0.59848 0.36853 0.18400  0.422431578947
 H1 0.59853 0.868602 0.1840  0.422431578947
 H2 0.441127 0.487182 0.98363  0.0899399122807
 H2 0.441136 0.987173 0.98354  0.0899399122807
 H2 0.941167 0.487187 0.98354  0.0899399122807
 H2 0.941094 0.987207 0.98364  0.0899399122807
 H2 0.405464 0.292245 0.91939  0.0899399122807
 H2 0.405583 0.792273 0.91951  0.0899399122807
 H2 0.905781 0.292288 0.9195  0.0899399122807
 H2 0.905723 0.792305 0.91961  0.0899399122807
 H2 0.353554 0.359877 0.68100  0.0899399122807
 H2 0.353532 0.859781 0.68097  0.0899399122807
 H2 0.853436 0.359766 0.68100  0.0899399122807
 H2 0.853425 0.859807 0.68109  0.0899399122807
 H2 0.050503 0.234912 0.92196  0.0899399122807
 H2 0.050434 0.734745 0.92188  0.0899399122807
 H2 0.550431 0.234895 0.92183  0.0899399122807
 H2 0.550389 0.734764 0.92183  0.0899399122807
 H2 0.053303 0.399478 0.86302  0.0899399122807
 H2 0.053238 0.899328 0.86300  0.0899399122807
 H2 0.553008 0.399389 0.86271  0.0899399122807
 H2 0.553019 0.8993 0.86283  0.0899399122807
 H2 0.47859 0.214165 0.62039  0.0899399122807
 H2 0.478698 0.714111 0.62042  0.0899399122807
 H2 0.978562 0.214297 0.62058  0.0899399122807
 H2 0.97854 0.714163 0.62052  0.0899399122807
 H1 0.131199 0.401005 0.31580  0.422431578947
 H1 0.131214 0.901072 0.31581  0.422431578947
 H1 0.630959 0.400825 0.3156  0.422431578947
 H1 0.631109 0.901061 0.31574  0.422431578947
 H2 0.012791 0.058825 0.51644  0.0899399122807
 H2 0.012818 0.558742 0.51655  0.0899399122807
 H2 0.512806 0.058761 0.51637  0.0899399122807
 H2 0.512828 0.558713 0.51639  0.0899399122807
 H2 0.207712 0.094158 0.58024  0.0899399122807
 H2 0.207735 0.594281 0.58033  0.0899399122807
 H2 0.707746 0.094184 0.58032  0.0899399122807
 H2 0.707754 0.594122 0.58022  0.0899399122807
 H2 0.140493 0.146714 0.81889  0.0899399122807
 H2 0.140515 0.646618 0.81901  0.0899399122807
 H2 0.640435 0.146595 0.81888  0.0899399122807
 H2 0.640503 0.646561 0.81885  0.0899399122807
 H2 0.265168 0.44972 0.57823  0.0899399122807
 H2 0.26517 0.949625 0.57820  0.0899399122807
 H2 0.765026 0.449492 0.57809  0.0899399122807
 H2 0.765098 0.949596 0.57811  0.0899399122807
 H2 0.100606 0.446777 0.63710  0.0899399122807
 H2 0.100583 0.946602 0.63700  0.0899399122807
 H2 0.600487 0.446694 0.6370  0.0899399122807
 H2 0.600499 0.946586 0.63687  0.0899399122807
 H2 0.285895 0.021675 0.87953  0.0899399122807
 H2 0.285933 0.521685 0.87959  0.0899399122807
 H2 0.785801 0.021611 0.87943  0.0899399122807
 H2 0.785827 0.521558 0.87947  0.0899399122807
 C1 0.077477 0.061353 0.06952  0.158525328947
 C1 0.077406 0.561378 0.06961  0.158525328947
 C1 0.577457 0.061387 0.0696  0.158525328947
 C1 0.577471 0.56137 0.06958  0.158525328947
 C2 0.072831 0.108249 0.03414  -0.187103421053
 C2 0.072762 0.608277 0.03424  -0.187103421053
 C2 0.572901 0.108284 0.03424  -0.187103421053
 C2 0.572989 0.608306 0.03427  -0.187103421053
 C3 0.097138 0.170012 0.10549  0.00124407894737
 C3 0.097083 0.670041 0.10558  0.00124407894737
 C3 0.597218 0.170044 0.10560  0.00124407894737
 C3 0.5973 0.670051 0.10568  0.00124407894737
 C4 0.123323 0.181723 0.20889  -0.00905842105263
 C4 0.123291 0.681756 0.20898  -0.00905842105263
 C4 0.62333 0.181755 0.2090  -0.00905842105263
 C4 0.623361 0.681715 0.20907  -0.00905842105263
 C1 0.126666 0.132625 0.23881  0.158525328947
 C1 0.126627 0.632658 0.238  0.158525328947
 C1 0.626604 0.132657 0.23893  0.158525328947
 C1 0.626594 0.632586 0.23892  0.158525328947
 C5 0.038325 0.090942 0.92112  0.669161578947
 C5 0.03826 0.590997 0.9212  0.669161578947
 C5 0.5385 0.09098 0.92120  0.669161578947
 C5 0.538668 0.591088 0.92125  0.669161578947
 C1 0.458982 0.242541 0.13054  0.158525328947
 C1 0.458967 0.742425 0.13056  0.158525328947
 C1 0.958926 0.242539 0.13045  0.158525328947
 C1 0.958867 0.742377 0.1303  0.158525328947
 C2 0.444149 0.177924 0.09355  -0.187103421053
 C2 0.444115 0.677807 0.09361  -0.187103421053
 C2 0.943978 0.177917 0.09343  -0.187103421053
 C2 0.943905 0.677753 0.09338  -0.187103421053
 C3 0.45755 0.150894 0.1638  0.00124407894737
 C3 0.457564 0.650803 0.16394  0.00124407894737
 C3 0.957412 0.150872 0.16371  0.00124407894737
 C3 0.957349 0.65072 0.16367  0.00124407894737
 C4 0.485189 0.189964 0.26740  -0.00905842105263
 C4 0.485243 0.689891 0.26749  -0.00905842105263
 C4 0.985165 0.189926 0.26727  -0.00905842105263
 C4 0.985115 0.689778 0.26723  -0.00905842105263
 C1 0.998889 0.254121 0.29903  0.158525328947
 C1 0.998848 0.753972 0.29897  0.158525328947
 C1 0.498802 0.254155 0.29913  0.158525328947
 C1 0.498869 0.754079 0.2991  0.158525328947
 C5 0.416686 0.139317 0.979  0.669161578947
 C5 0.416628 0.639165 0.97957  0.669161578947
 C5 0.916359 0.139307 0.97936  0.669161578947
 C5 0.916281 0.639118 0.97931  0.669161578947
 C1 0.438505 0.422626 0.4305  0.158525328947
 C1 0.438534 0.922584 0.43051  0.158525328947
 C1 0.938517 0.42257 0.43036  0.158525328947
 C1 0.938538 0.922514 0.4304  0.158525328947
 C2 0.391649 0.427282 0.46595  -0.187103421053
 C2 0.391661 0.927248 0.46589  -0.187103421053
 C2 0.891671 0.427199 0.46581  -0.187103421053
 C2 0.891693 0.92723 0.46592  -0.187103421053
 C3 0.329829 0.402935 0.39465  0.00124407894737
 C3 0.329849 0.902888 0.39457  0.00124407894737
 C3 0.829848 0.402819 0.39452  0.00124407894737
 C3 0.82987 0.902882 0.39463  0.00124407894737
 C4 0.318018 0.37669 0.29125  -0.00905842105263
 C4 0.318058 0.876645 0.29117  -0.00905842105263
 C4 0.818031 0.37659 0.29111  -0.00905842105263
 C4 0.818051 0.876612 0.29122  -0.00905842105263
 C1 0.367075 0.373333 0.26128  0.158525328947
 C1 0.367133 0.873294 0.26124  0.158525328947
 C1 0.867083 0.373266 0.26112  0.158525328947
 C1 0.867103 0.873204 0.26124  0.158525328947
 C5 0.409047 0.461822 0.5789  0.669161578947
 C5 0.409005 0.961782 0.57888  0.669161578947
 C5 0.909094 0.461743 0.57884  0.669161578947
 C5 0.909112 0.961806 0.57894  0.669161578947
 C1 0.257545 0.041 0.36961  0.158525328947
 C1 0.257596 0.54105 0.36959  0.158525328947
 C1 0.757461 0.040959 0.36950  0.158525328947
 C1 0.757452 0.540851 0.36945  0.158525328947
 C2 0.322198 0.056053 0.40666  -0.187103421053
 C2 0.322244 0.556042 0.40659  -0.187103421053
 C2 0.822112 0.05603 0.4065  -0.187103421053
 C2 0.822101 0.555882 0.40647  -0.187103421053
 C3 0.349218 0.042631 0.33641  0.00124407894737
 C3 0.349234 0.542574 0.33630  0.00124407894737
 C3 0.849133 0.0426 0.33630  0.00124407894737
 C3 0.849112 0.542463 0.33621  0.00124407894737
 C4 0.310121 0.014793 0.23284  -0.00905842105263
 C4 0.310111 0.51478 0.23274  -0.00905842105263
 C4 0.810028 0.01474 0.23273  -0.00905842105263
 C4 0.809996 0.514659 0.23265  -0.00905842105263
 C1 0.245893 0.501014 0.20100  0.158525328947
 C1 0.245896 0.0 0.20104  0.158525328947
 C1 0.745775 0.50087 0.20088  0.158525328947
 C1 0.745804 0.0 0.20094  0.158525328947
 C5 0.360899 0.083762 0.52075  0.669161578947
 C5 0.36098 0.583704 0.52067  0.669161578947
 C5 0.860783 0.083751 0.5206  0.669161578947
 C5 0.860784 0.583559 0.5205  0.669161578947
 C1 0.422487 0.438609 0.93043  0.158525328947
 C1 0.422503 0.938592 0.93039  0.158525328947
 C1 0.922558 0.438603 0.93040  0.158525328947
 C1 0.92248 0.938625 0.93049  0.158525328947
 C2 0.426966 0.391673 0.96574  -0.187103421053
 C2 0.427055 0.891694 0.96577  -0.187103421053
 C2 0.927201 0.391706 0.96577  -0.187103421053
 C2 0.927131 0.891728 0.96587  -0.187103421053
 C3 0.402658 0.329927 0.89434  0.00124407894737
 C3 0.40274 0.829935 0.89441  0.00124407894737
 C3 0.902879 0.329942 0.89443  0.00124407894737
 C3 0.902821 0.829966 0.89452  0.00124407894737
 C4 0.376597 0.318263 0.79095  -0.00905842105263
 C4 0.376629 0.818224 0.79101  -0.00905842105263
 C4 0.87667 0.318225 0.79103  -0.00905842105263
 C4 0.876636 0.818255 0.79111  -0.00905842105263
 C1 0.373363 0.367392 0.76110  0.158525328947
 C1 0.373356 0.867322 0.76108  0.158525328947
 C1 0.873334 0.367323 0.76111  0.158525328947
 C1 0.873293 0.867353 0.76120  0.158525328947
 C5 0.46129 0.408892 0.07876  0.669161578947
 C5 0.461456 0.908996 0.07881  0.669161578947
 C5 0.961706 0.408987 0.07877  0.669161578947
 C5 0.961634 0.909035 0.07889  0.669161578947
 C1 0.041096 0.257603 0.86963  0.158525328947
 C1 0.041037 0.757441 0.86956  0.158525328947
 C1 0.540994 0.257554 0.86946  0.158525328947
 C1 0.540971 0.757436 0.86947  0.158525328947
 C2 0.056059 0.322228 0.90663  -0.187103421053
 C2 0.055981 0.822062 0.90658  -0.187103421053
 C2 0.555838 0.322172 0.90640  -0.187103421053
 C2 0.555807 0.822053 0.90646  -0.187103421053
 C3 0.042613 0.34926 0.83634  0.00124407894737
 C3 0.042551 0.849109 0.83631  0.00124407894737
 C3 0.542394 0.349175 0.83607  0.00124407894737
 C3 0.542406 0.849084 0.83617  0.00124407894737
 C4 0.014846 0.310201 0.73278  -0.00905842105263
 C4 0.014797 0.810056 0.73274  -0.00905842105263
 C4 0.514715 0.310087 0.73252  -0.00905842105263
 C4 0.514769 0.810015 0.73261  -0.00905842105263
 C1 0.501089 0.245899 0.70084  0.158525328947
 C1 0.501156 0.745823 0.70088  0.158525328947
 C1 0.0 0.246006 0.70104  0.158525328947
 C1 0.0 0.745861 0.70098  0.158525328947
 C5 0.083685 0.360864 0.02070  0.669161578947
 C5 0.083603 0.860671 0.02065  0.669161578947
 C5 0.583328 0.360813 0.02044  0.669161578947
 C5 0.583268 0.860659 0.02052  0.669161578947
 C1 0.061418 0.077467 0.56953  0.158525328947
 C1 0.061443 0.577408 0.56965  0.158525328947
 C1 0.561426 0.077398 0.56950  0.158525328947
 C1 0.561454 0.577351 0.56948  0.158525328947
 C2 0.108263 0.072749 0.53409  -0.187103421053
 C2 0.108288 0.572781 0.53420  -0.187103421053
 C2 0.6083 0.072732 0.53412  -0.187103421053
 C2 0.608309 0.57269 0.53406  -0.187103421053
 C3 0.170087 0.097097 0.60538  0.00124407894737
 C3 0.170111 0.597161 0.6054  0.00124407894737
 C3 0.670111 0.097095 0.60545  0.00124407894737
 C3 0.670129 0.597042 0.60536  0.00124407894737
 C4 0.181905 0.123367 0.70879  -0.00905842105263
 C4 0.181929 0.623386 0.70890  -0.00905842105263
 C4 0.681901 0.123336 0.70884  -0.00905842105263
 C4 0.681941 0.623289 0.70877  -0.00905842105263
 C1 0.132853 0.126775 0.73877  0.158525328947
 C1 0.132877 0.626713 0.73889  0.158525328947
 C1 0.632826 0.126684 0.73877  0.158525328947
 C1 0.632884 0.626646 0.7387  0.158525328947
 C5 0.090842 0.038174 0.42107  0.669161578947
 C5 0.090865 0.538235 0.4211  0.669161578947
 C5 0.590958 0.038201 0.42113  0.669161578947
 C5 0.59091 0.538151 0.42105  0.669161578947
 C1 0.242505 0.459123 0.63056  0.158525328947
 C1 0.242496 0.95902 0.63051  0.158525328947
 C1 0.742365 0.458928 0.63042  0.158525328947
 C1 0.742414 0.958986 0.63041  0.158525328947
 C2 0.177856 0.444094 0.59354  -0.187103421053
 C2 0.177845 0.943951 0.59347  -0.187103421053
 C2 0.677717 0.44394 0.59342  -0.187103421053
 C2 0.677761 0.943927 0.59335  -0.187103421053
 C3 0.150847 0.457516 0.66380  0.00124407894737
 C3 0.150825 0.957381 0.66371  0.00124407894737
 C3 0.650726 0.457401 0.66371  0.00124407894737
 C3 0.650741 0.957351 0.66360  0.00124407894737
 C4 0.189963 0.485318 0.76736  -0.00905842105263
 C4 0.189932 0.98524 0.76728  -0.00905842105263
 C4 0.689848 0.485197 0.7672  -0.00905842105263
 C4 0.689838 0.985189 0.76717  -0.00905842105263
 C1 0.254156 0.999057 0.79907  0.158525328947
 C1 0.254185 0.499106 0.79913  0.158525328947
 C1 0.754062 0.999 0.79897  0.158525328947
 C1 0.754067 0.498965 0.79901  0.158525328947
 C5 0.139171 0.416415 0.47944  0.669161578947
 C5 0.139171 0.916229 0.47937  0.669161578947
 C5 0.638981 0.416272 0.47934  0.669161578947
 C5 0.639062 0.916223 0.47926  0.669161578947
 Br1 0.153183 0.264788 0.31071  -0.0367609210526
 Br1 0.15319 0.764828 0.31077  -0.0367609210526
 Br1 0.653167 0.26482 0.31080  -0.0367609210526
 Br1 0.653225 0.764771 0.31091  -0.0367609210526
 Br1 0.00671 0.156183 0.36774  -0.0367609210526
 Br1 0.006658 0.656031 0.36769  -0.0367609210526
 Br1 0.506679 0.156246 0.36791  -0.0367609210526
 Br1 0.506767 0.656192 0.36801  -0.0367609210526
 Br1 0.234868 0.346759 0.18949  -0.0367609210526
 Br1 0.234913 0.846706 0.18939  -0.0367609210526
 Br1 0.734872 0.346626 0.18935  -0.0367609210526
 Br1 0.734893 0.846681 0.18946  -0.0367609210526
 Br1 0.343805 0.493304 0.13229  -0.0367609210526
 Br1 0.343862 0.993307 0.13246  -0.0367609210526
 Br1 0.843699 0.493202 0.1322  -0.0367609210526
 Br1 0.843753 0.99324 0.13232  -0.0367609210526
 Br1 0.346734 0.235207 0.6891  -0.0367609210526
 Br1 0.346791 0.735159 0.68921  -0.0367609210526
 Br1 0.846768 0.235152 0.68924  -0.0367609210526
 Br1 0.846775 0.73519 0.68930  -0.0367609210526
 Br1 0.493189 0.343784 0.63199  -0.0367609210526
 Br1 0.493282 0.843734 0.63210  -0.0367609210526
 Br1 0.993301 0.343946 0.63232  -0.0367609210526
 Br1 0.993251 0.843802 0.6322  -0.0367609210526
 Br1 0.265062 0.153297 0.81055  -0.0367609210526
 Br1 0.265087 0.653352 0.81066  -0.0367609210526
 Br1 0.765046 0.153274 0.8106  -0.0367609210526
 Br1 0.765092 0.653222 0.81053  -0.0367609210526
 Br1 0.15621 0.006741 0.86769  -0.0367609210526
 Br1 0.156262 0.506777 0.86781  -0.0367609210526
 Br1 0.656096 0.006672 0.86755  -0.0367609210526
 Br1 0.656154 0.506673 0.86771  -0.0367609210526
 N1 0.104551 0.07332 0.16929  -0.343623421053
 N1 0.104502 0.573352 0.1693  -0.343623421053
 N1 0.604459 0.073352 0.16941  -0.343623421053
 N1 0.604439 0.57329 0.16935  -0.343623421053
 N1 0.485463 0.279782 0.23087  -0.343623421053
 N1 0.485492 0.779683 0.23088  -0.343623421053
 N1 0.985525 0.279766 0.23079  -0.343623421053
 N1 0.985471 0.779609 0.23073  -0.343623421053
 N1 0.426434 0.395509 0.33076  -0.343623421053
 N1 0.426489 0.895462 0.33074  -0.343623421053
 N1 0.926449 0.395468 0.33058  -0.343623421053
 N1 0.926469 0.89536 0.33070  -0.343623421053
 N1 0.220275 0.014311 0.26926  -0.343623421053
 N1 0.2203 0.514375 0.26925  -0.343623421053
 N1 0.720185 0.014256 0.26915  -0.343623421053
 N1 0.720164 0.514181 0.2691  -0.343623421053
 N1 0.39552 0.426688 0.83066  -0.343623421053
 N1 0.3955 0.926627 0.83060  -0.343623421053
 N1 0.895459 0.426629 0.83062  -0.343623421053
 N1 0.895407 0.926658 0.83072  -0.343623421053
 N1 0.014489 0.22037 0.76929  -0.343623421053
 N1 0.014438 0.720215 0.76921  -0.343623421053
 N1 0.514465 0.220296 0.76913  -0.343623421053
 N1 0.514491 0.720196 0.76914  -0.343623421053
 N1 0.073487 0.104617 0.66931  -0.343623421053
 N1 0.073511 0.604514 0.66943  -0.343623421053
 N1 0.57347 0.104518 0.66927  -0.343623421053
 N1 0.573524 0.604469 0.66926  -0.343623421053
 N1 0.279794 0.485795 0.73090  -0.343623421053
 N1 0.279773 0.985721 0.73086  -0.343623421053
 N1 0.77966 0.485606 0.7307  -0.343623421053
 N1 0.779684 0.985669 0.73076  -0.343623421053
 O1 0.501071 0.037531 0.86936  -0.604695087719
 O1 0.501032 0.537753 0.86940  -0.604695087719
 O1 0.0 0.037507 0.8693  -0.604695087719
 O1 0.0 0.537558 0.86943  -0.604695087719
 O1 0.04951 0.131953 0.88856  -0.604695087719
 O1 0.049419 0.632047 0.88873  -0.604695087719
 O1 0.549738 0.132015 0.88870  -0.604695087719
 O1 0.550168 0.632053 0.88876  -0.604695087719
 O2 0.409259 0.169597 0.92389  -0.585788421053
 O2 0.409144 0.669412 0.92392  -0.585788421053
 O2 0.908884 0.169578 0.92374  -0.585788421053
 O2 0.9088 0.66937 0.92367  -0.585788421053
 O1 0.404655 0.080702 0.94975  -0.604695087719
 O1 0.404633 0.580553 0.94985  -0.604695087719
 O1 0.904245 0.080688 0.94960  -0.604695087719
 O1 0.904161 0.5805 0.94956  -0.604695087719
 O1 0.462468 0.99924 0.63060  -0.604695087719
 O1 0.462594 0.499084 0.63072  -0.604695087719
 O1 0.962551 0.999325 0.63050  -0.604695087719
 O1 0.962627 0.499051 0.63054  -0.604695087719
 O1 0.367972 0.45087 0.61151  -0.604695087719
 O1 0.367971 0.950641 0.61140  -0.604695087719
 O1 0.86805 0.450738 0.61142  -0.604695087719
 O1 0.868174 0.950629 0.61161  -0.604695087719
 O2 0.330675 0.091272 0.57639  -0.585788421053
 O2 0.330813 0.591576 0.5764  -0.585788421053
 O2 0.830523 0.091225 0.57623  -0.585788421053
 O2 0.830561 0.591316 0.57621  -0.585788421053
 O1 0.419538 0.095909 0.55051  -0.604695087719
 O1 0.419596 0.595442 0.5503  -0.604695087719
 O1 0.919428 0.095941 0.55044  -0.604695087719
 O1 0.919414 0.59542 0.5502  -0.604695087719
 O1 0.999175 0.462427 0.13058  -0.604695087719
 O1 0.999119 0.96247 0.13063  -0.604695087719
 O1 0.498929 0.462226 0.13061  -0.604695087719
 O1 0.498887 0.962443 0.13065  -0.604695087719
 O1 0.449786 0.367929 0.11125  -0.604695087719
 O1 0.450211 0.867961 0.11131  -0.604695087719
 O1 0.95055 0.367937 0.11128  -0.604695087719
 O1 0.950454 0.868022 0.11145  -0.604695087719
 O2 0.091168 0.330613 0.07634  -0.585788421053
 O2 0.091078 0.8304 0.07627  -0.585788421053
 O2 0.590805 0.330565 0.07609  -0.585788421053
 O2 0.590689 0.830377 0.07612  -0.585788421053
 O1 0.095804 0.419482 0.05045  -0.604695087719
 O1 0.095714 0.91929 0.05041  -0.604695087719
 O1 0.595327 0.419426 0.05016  -0.604695087719
 O1 0.595307 0.919274 0.05027  -0.604695087719
 O1 0.03733 0.50093 0.36947  -0.604695087719
 O1 0.037405 0.0 0.36951  -0.604695087719
 O1 0.537359 0.500895 0.36930  -0.604695087719
 O1 0.537495 0.0 0.36941  -0.604695087719
 O1 0.131779 0.049353 0.38839  -0.604695087719
 O1 0.131909 0.549236 0.3885  -0.604695087719
 O1 0.631992 0.049344 0.38861  -0.604695087719
 O1 0.63199 0.54909 0.38850  -0.604695087719
 O2 0.169392 0.408647 0.423  -0.585788421053
 O2 0.16943 0.908755 0.42378  -0.585788421053
 O2 0.669147 0.408399 0.42360  -0.585788421053
 O2 0.669287 0.908714 0.42362  -0.585788421053
 O1 0.080542 0.404564 0.44973  -0.604695087719
 O1 0.080527 0.90404 0.44957  -0.604695087719
 O1 0.580365 0.404536 0.44971  -0.604695087719
 O1 0.580422 0.904075 0.4495  -0.604695087719
 O3 0.401136 0.099057 0.75009  -0.822058421053
 O3 0.401258 0.599237 0.75013  -0.822058421053
 O3 0.901046 0.099084 0.75003  -0.822058421053
 O3 0.901045 0.59911 0.75001  -0.822058421053
 O3 0.098918 0.40087 0.25000  -0.822058421053
 O3 0.098913 0.900895 0.24998  -0.822058421053
 O3 0.598694 0.400736 0.2498  -0.822058421053
 O3 0.598819 0.900923 0.24992  -0.822058421053
