#======================================================================

# CRYSTAL DATA

#----------------------------------------------------------------------

data_VESTA_phase_1


_pd_phase_name                         MOF
_cell_length_a                         20.29700
_cell_length_b                         22.80700
_cell_length_c                         18.08900
_cell_angle_alpha                      99.85800
_cell_angle_beta                       89.93400
_cell_angle_gamma                      116.45800
_symmetry_space_group_name_H-M         "P 1"
_symmetry_Int_Tables_number            1

loop_
_symmetry_equiv_pos_as_xyz
   "x, y, z"

loop_
   _atom_site_label
   _atom_site_fract_x
   _atom_site_fract_y
   _atom_site_fract_z
 _atom_site_charge
 Cd1 0.23007 0.40465 0.97388  1.08134754237
 Cd1 0.230073 0.904654 0.97388  1.08134754237
 Cd1 0.730065 0.404649 0.97388  1.08134754237
 Cd1 0.730069 0.904653 0.97388  1.08134754237
 Cd1 0.325351 0.095314 0.52608  1.08134754237
 Cd1 0.325355 0.595318 0.52608  1.08134754237
 Cd1 0.825346 0.095313 0.52608  1.08134754237
 Cd1 0.825351 0.595318 0.52608  1.08134754237
 Cd1 0.269955 0.095372 0.02610  1.08134754237
 Cd1 0.269959 0.595376 0.02610  1.08134754237
 Cd1 0.76995 0.095371 0.02610  1.08134754237
 Cd1 0.769954 0.595375 0.02610  1.08134754237
 Cd1 0.174664 0.404707 0.47390  1.08134754237
 Cd1 0.17467 0.904711 0.47390  1.08134754237
 Cd1 0.674661 0.404707 0.47390  1.08134754237
 Cd1 0.674665 0.90471 0.47390  1.08134754237
 Cd2 0.250015 0.250012 2e-0  1.22617254237
 Cd2 0.250013 0.750011 0.99998  1.22617254237
 Cd2 0.750011 0.250011 2e-0  1.22617254237
 Cd2 0.750014 0.750016 0.99999  1.22617254237
 Cd2 7e-06 0.25001 0.49999  1.22617254237
 Cd2 0.0 0.750015 0.49998  1.22617254237
 Cd2 0.500006 0.250011 0.49999  1.22617254237
 Cd2 0.50001 0.750014 0.49999  1.22617254237
 H1 0.198018 0.180211 0.83599  0.0996618280872
 H1 0.198021 0.680217 0.83599  0.0996618280872
 H1 0.698012 0.18021 0.83599  0.0996618280872
 H1 0.698018 0.680217 0.83599  0.0996618280872
 H1 0.127122 0.076194 0.74556  0.0996618280872
 H1 0.127125 0.5762 0.74556  0.0996618280872
 H1 0.627116 0.076193 0.74556  0.0996618280872
 H1 0.627122 0.5762 0.74556  0.0996618280872
 H1 0.4149 0.064349 0.64632  0.0996618280872
 H1 0.414905 0.564354 0.64632  0.0996618280872
 H1 0.914894 0.064347 0.64632  0.0996618280872
 H1 0.914899 0.564354 0.64632  0.0996618280872
 H1 0.004212 0.165641 0.6563  0.0996618280872
 H1 0.004218 0.665648 0.65636  0.0996618280872
 H1 0.50421 0.165642 0.65636  0.0996618280872
 H1 0.504214 0.665647 0.65636  0.0996618280872
 H1 0.097065 0.014604 0.62733  0.0996618280872
 H1 0.097067 0.514607 0.62733  0.0996618280872
 H1 0.597059 0.014602 0.62733  0.0996618280872
 H1 0.597064 0.514607 0.62733  0.0996618280872
 H1 0.073096 0.268785 0.75113  0.0996618280872
 H1 0.073101 0.768792 0.75112  0.0996618280872
 H1 0.573094 0.268786 0.75113  0.0996618280872
 H1 0.573098 0.768791 0.75112  0.0996618280872
 H1 0.383242 0.376408 0.51630  0.0996618280872
 H1 0.383246 0.876411 0.51630  0.0996618280872
 H1 0.883237 0.376408 0.51630  0.0996618280872
 H1 0.883242 0.876411 0.51630  0.0996618280872
 H1 0.517897 0.319549 0.66402  0.0996618280872
 H1 0.517901 0.819555 0.66402  0.0996618280872
 H1 0.0 0.319546 0.66402  0.0996618280872
 H1 0.0 0.819555 0.66401  0.0996618280872
 H1 0.051152 0.423603 0.75445  0.0996618280872
 H1 0.051158 0.923611 0.75444  0.0996618280872
 H1 0.551148 0.423605 0.75445  0.0996618280872
 H1 0.551152 0.92361 0.75445  0.0996618280872
 H1 0.350642 0.435651 0.85357  0.0996618280872
 H1 0.350646 0.935656 0.85357  0.0996618280872
 H1 0.850638 0.43565 0.85357  0.0996618280872
 H1 0.850643 0.935655 0.85357  0.0996618280872
 H1 0.338492 0.334423 0.8437  0.0996618280872
 H1 0.338494 0.834428 0.84370  0.0996618280872
 H1 0.838488 0.334422 0.84371  0.0996618280872
 H1 0.838493 0.834427 0.84370  0.0996618280872
 H1 0.082559 0.485333 0.87272  0.0996618280872
 H1 0.082563 0.985338 0.87272  0.0996618280872
 H1 0.582555 0.485333 0.87272  0.0996618280872
 H1 0.582557 0.985337 0.87272  0.0996618280872
 H1 0.304101 0.231263 0.74892  0.0996618280872
 H1 0.304103 0.731268 0.74891  0.0996618280872
 H1 0.804096 0.231261 0.74892  0.0996618280872
 H1 0.804103 0.731267 0.74891  0.0996618280872
 H1 0.006868 0.123554 0.98366  0.0996618280872
 H1 0.006872 0.623557 0.98366  0.0996618280872
 H1 0.506865 0.123555 0.98367  0.0996618280872
 H1 0.506868 0.623558 0.98366  0.0996618280872
 H1 0.302002 0.31981 0.16399  0.0996618280872
 H1 0.302008 0.819816 0.16399  0.0996618280872
 H1 0.801999 0.319809 0.16399  0.0996618280872
 H1 0.802003 0.819815 0.16399  0.0996618280872
 H1 0.372899 0.423827 0.25442  0.0996618280872
 H1 0.372906 0.923832 0.25442  0.0996618280872
 H1 0.872896 0.423826 0.25442  0.0996618280872
 H1 0.8729 0.923832 0.25442  0.0996618280872
 H1 0.08512 0.435671 0.35367  0.0996618280872
 H1 0.085126 0.935678 0.35366  0.0996618280872
 H1 0.585117 0.435673 0.35366  0.0996618280872
 H1 0.585122 0.935677 0.35366  0.0996618280872
 H1 0.495806 0.334378 0.34362  0.0996618280872
 H1 0.495811 0.834382 0.34362  0.0996618280872
 H1 0.9958 0.334376 0.34362  0.0996618280872
 H1 0.995808 0.834383 0.3436  0.0996618280872
 H1 0.402954 0.485415 0.37265  0.0996618280872
 H1 0.402959 0.985419 0.37265  0.0996618280872
 H1 0.902949 0.485414 0.37265  0.0996618280872
 H1 0.902953 0.985418 0.37265  0.0996618280872
 H1 0.426923 0.231235 0.24885  0.0996618280872
 H1 0.426927 0.731239 0.24885  0.0996618280872
 H1 0.926917 0.231233 0.2488  0.0996618280872
 H1 0.926924 0.73124 0.24885  0.0996618280872
 H1 0.116773 0.123615 0.48368  0.0996618280872
 H1 0.116778 0.623618 0.48368  0.0996618280872
 H1 0.61677 0.123616 0.48368  0.0996618280872
 H1 0.616774 0.623619 0.48368  0.0996618280872
 H1 0.982115 0.180472 0.3359  0.0996618280872
 H1 0.982123 0.68048 0.33596  0.0996618280872
 H1 0.482114 0.180474 0.33596  0.0996618280872
 H1 0.482117 0.680478 0.33596  0.0996618280872
 H1 0.448859 0.076417 0.24553  0.0996618280872
 H1 0.448862 0.576421 0.24553  0.0996618280872
 H1 0.948852 0.076415 0.24553  0.0996618280872
 H1 0.948858 0.576422 0.24553  0.0996618280872
 H1 0.149371 0.064372 0.14642  0.0996618280872
 H1 0.149376 0.564376 0.14641  0.0996618280872
 H1 0.649369 0.06437 0.14642  0.0996618280872
 H1 0.649371 0.564376 0.14641  0.0996618280872
 H1 0.161518 0.165595 0.15628  0.0996618280872
 H1 0.161522 0.665599 0.15627  0.0996618280872
 H1 0.661517 0.165593 0.15628  0.0996618280872
 H1 0.661519 0.665599 0.15627  0.0996618280872
 H1 0.417455 0.014679 0.12726  0.0996618280872
 H1 0.417457 0.514682 0.12725  0.0996618280872
 H1 0.917448 0.014679 0.12726  0.0996618280872
 H1 0.917452 0.514682 0.12725  0.0996618280872
 H1 0.195911 0.268755 0.25106  0.0996618280872
 H1 0.195917 0.76876 0.2510  0.0996618280872
 H1 0.695911 0.268754 0.25106  0.0996618280872
 H1 0.695914 0.768759 0.25106  0.0996618280872
 H1 0.493158 0.376468 0.0163  0.0996618280872
 H1 0.493162 0.876471 0.01631  0.0996618280872
 H1 0.993154 0.376468 0.01632  0.0996618280872
 H1 0.993158 0.876473 0.01631  0.0996618280872
 C1 0.155119 0.177139 0.79724  -0.0574088861985
 C1 0.155122 0.677145 0.79724  -0.0574088861985
 C1 0.655114 0.177138 0.79724  -0.0574088861985
 C1 0.65512 0.677145 0.79724  -0.0574088861985
 C2 0.021169 0.390777 0.54388  0.700517542373
 C2 0.021175 0.890781 0.54387  0.700517542373
 C2 0.521166 0.390778 0.5438  0.700517542373
 C2 0.521169 0.89078 0.5438  0.700517542373
 C1 0.115362 0.118351 0.74536  -0.0574088861985
 C1 0.115365 0.618357 0.74536  -0.0574088861985
 C1 0.615357 0.11835 0.74536  -0.0574088861985
 C1 0.615363 0.618357 0.74536  -0.0574088861985
 C1 0.438177 0.030943 0.62355  -0.0574088861985
 C1 0.438182 0.530948 0.62355  -0.0574088861985
 C1 0.938173 0.030942 0.6235  -0.0574088861985
 C1 0.938176 0.530947 0.62355  -0.0574088861985
 C3 0.392123 0.470032 0.5769  -0.0750894576271
 C3 0.392126 0.970034 0.57697  -0.0750894576271
 C3 0.892118 0.470032 0.57698  -0.0750894576271
 C3 0.892121 0.970033 0.57698  -0.0750894576271
 C1 0.045488 0.167863 0.69665  -0.0574088861985
 C1 0.045493 0.667869 0.69664  -0.0574088861985
 C1 0.545485 0.167863 0.69664  -0.0574088861985
 C1 0.54549 0.667869 0.69664  -0.0574088861985
 C3 0.058853 0.112131 0.69496  -0.0750894576271
 C3 0.058857 0.612137 0.69495  -0.0750894576271
 C3 0.558849 0.112131 0.6949  -0.0750894576271
 C3 0.558854 0.612137 0.69495  -0.0750894576271
 C1 0.039466 0.002653 0.61493  -0.0574088861985
 C1 0.039469 0.502657 0.61493  -0.0574088861985
 C1 0.539461 0.002652 0.61493  -0.0574088861985
 C1 0.539466 0.502657 0.61493  -0.0574088861985
 C3 0.493143 0.440837 0.56993  -0.0750894576271
 C3 0.493147 0.940839 0.5699  -0.0750894576271
 C3 0.993138 0.440837 0.56993  -0.0750894576271
 C3 0.993143 0.940839 0.56993  -0.0750894576271
 C3 0.012361 0.048227 0.64351  -0.0750894576271
 C3 0.012365 0.548232 0.6435  -0.0750894576271
 C3 0.512357 0.048228 0.6435  -0.0750894576271
 C3 0.512362 0.548233 0.64350  -0.0750894576271
 C1 0.084689 0.226307 0.74882  -0.0574088861985
 C1 0.084694 0.726313 0.74881  -0.0574088861985
 C1 0.584686 0.226307 0.74881  -0.0574088861985
 C1 0.584691 0.726313 0.74881  -0.0574088861985
 C3 0.139406 0.231486 0.80062  -0.0750894576271
 C3 0.139411 0.731492 0.80061  -0.0750894576271
 C3 0.639402 0.231486 0.80062  -0.0750894576271
 C3 0.639407 0.731491 0.80061  -0.0750894576271
 C2 0.176784 0.293662 0.85803  0.700517542373
 C2 0.176786 0.793667 0.85803  0.700517542373
 C2 0.67678 0.293661 0.85803  0.700517542373
 C2 0.676785 0.793667 0.85803  0.700517542373
 C1 0.419375 0.424405 0.55108  -0.0574088861985
 C1 0.419378 0.924406 0.55108  -0.0574088861985
 C1 0.91937 0.424404 0.55108  -0.0574088861985
 C1 0.919375 0.924407 0.55108  -0.0574088861985
 C2 0.314172 0.453289 0.55396  0.700517542373
 C2 0.314175 0.953291 0.5539  0.700517542373
 C2 0.814166 0.453288 0.55396  0.700517542373
 C2 0.81417 0.95329 0.55396  0.700517542373
 C1 0.478025 0.322705 0.70277  -0.0574088861985
 C1 0.478029 0.82271 0.70277  -0.0574088861985
 C1 0.97802 0.322703 0.70277  -0.0574088861985
 C1 0.978027 0.822711 0.70276  -0.0574088861985
 C2 0.13044 0.109225 0.9561  0.700517542373
 C2 0.130444 0.609228 0.95615  0.700517542373
 C2 0.630435 0.109224 0.95616  0.700517542373
 C2 0.630439 0.609227 0.95616  0.700517542373
 C1 0.49713 0.381509 0.75465  -0.0574088861985
 C1 0.497133 0.881514 0.75465  -0.0574088861985
 C1 0.997125 0.381508 0.75465  -0.0574088861985
 C1 0.997131 0.881515 0.75465  -0.0574088861985
 C1 0.407312 0.469041 0.87639  -0.0574088861985
 C1 0.407315 0.969046 0.87639  -0.0574088861985
 C1 0.907307 0.469041 0.87639  -0.0574088861985
 C1 0.907311 0.969046 0.8763  -0.0574088861985
 C3 0.422139 0.029953 0.92296  -0.0750894576271
 C3 0.422143 0.529955 0.92296  -0.0750894576271
 C3 0.922135 0.029952 0.92296  -0.0750894576271
 C3 0.922139 0.529954 0.92296  -0.0750894576271
 C1 0.37758 0.332141 0.80340  -0.0574088861985
 C1 0.377583 0.832147 0.80339  -0.0574088861985
 C1 0.877575 0.33214 0.80340  -0.0574088861985
 C1 0.877581 0.832146 0.80339  -0.0574088861985
 C3 0.446792 0.387812 0.80507  -0.0750894576271
 C3 0.446795 0.887818 0.80507  -0.0750894576271
 C3 0.946787 0.387811 0.80507  -0.0750894576271
 C3 0.946793 0.887817 0.80507  -0.0750894576271
 C1 0.036905 0.497297 0.88509  -0.0574088861985
 C1 0.03691 0.997302 0.88509  -0.0574088861985
 C1 0.536901 0.497297 0.88509  -0.0574088861985
 C1 0.536904 0.997301 0.88509  -0.0574088861985
 C3 0.052373 0.059115 0.93009  -0.0750894576271
 C3 0.052377 0.559117 0.93009  -0.0750894576271
 C3 0.552368 0.059115 0.93009  -0.0750894576271
 C3 0.552372 0.559118 0.93009  -0.0750894576271
 C3 0.464223 0.451737 0.85649  -0.0750894576271
 C3 0.464226 0.951741 0.85649  -0.0750894576271
 C3 0.964219 0.451737 0.85649  -0.0750894576271
 C3 0.964223 0.951742 0.85649  -0.0750894576271
 C1 0.358257 0.273692 0.75121  -0.0574088861985
 C1 0.35826 0.773697 0.75121  -0.0574088861985
 C1 0.858252 0.273691 0.75121  -0.0574088861985
 C1 0.858258 0.773697 0.75121  -0.0574088861985
 C3 0.407849 0.268432 0.69940  -0.0750894576271
 C3 0.407852 0.768437 0.69940  -0.0750894576271
 C3 0.907845 0.268429 0.69940  -0.0750894576271
 C3 0.907852 0.768436 0.69940  -0.0750894576271
 C2 0.38293 0.206274 0.64194  0.700517542373
 C2 0.382934 0.706279 0.64194  0.700517542373
 C2 0.882923 0.206273 0.64194  0.700517542373
 C2 0.882931 0.706279 0.64193  0.700517542373
 C1 0.495014 0.075557 0.94890  -0.0574088861985
 C1 0.495018 0.57556 0.94889  -0.0574088861985
 C1 0.99501 0.075558 0.94889  -0.0574088861985
 C1 0.995014 0.575561 0.94889  -0.0574088861985
 C2 0.360914 0.046713 0.94596  0.700517542373
 C2 0.360917 0.546715 0.94596  0.700517542373
 C2 0.860909 0.046712 0.9459  0.700517542373
 C2 0.860913 0.546715 0.94596  0.700517542373
 C1 0.344901 0.322881 0.20274  -0.0574088861985
 C1 0.344907 0.822887 0.20274  -0.0574088861985
 C1 0.844895 0.32288 0.20274  -0.0574088861985
 C1 0.844901 0.822886 0.20274  -0.0574088861985
 C2 0.478843 0.109241 0.45610  0.700517542373
 C2 0.478847 0.609243 0.45610  0.700517542373
 C2 0.978836 0.109238 0.45610  0.700517542373
 C2 0.978841 0.609242 0.45610  0.700517542373
 C1 0.384659 0.38167 0.25462  -0.0574088861985
 C1 0.384665 0.881675 0.25462  -0.0574088861985
 C1 0.884654 0.381668 0.25462  -0.0574088861985
 C1 0.884659 0.881674 0.25462  -0.0574088861985
 C1 0.061841 0.469077 0.37643  -0.0574088861985
 C1 0.061847 0.969083 0.37643  -0.0574088861985
 C1 0.561839 0.469079 0.37643  -0.0574088861985
 C1 0.561843 0.969083 0.37643  -0.0574088861985
 C3 0.107897 0.029993 0.4230  -0.0750894576271
 C3 0.1079 0.529995 0.42300  -0.0750894576271
 C3 0.607892 0.029992 0.42301  -0.0750894576271
 C3 0.607896 0.529996 0.4230  -0.0750894576271
 C1 0.454531 0.332157 0.30334  -0.0574088861985
 C1 0.454536 0.832161 0.30333  -0.0574088861985
 C1 0.954525 0.332155 0.30334  -0.0574088861985
 C1 0.954532 0.832162 0.30333  -0.0574088861985
 C3 0.441167 0.387889 0.30503  -0.0750894576271
 C3 0.441172 0.887894 0.30502  -0.0750894576271
 C3 0.941162 0.387888 0.30503  -0.0750894576271
 C3 0.941168 0.887894 0.30502  -0.0750894576271
 C1 0.460553 0.497367 0.38505  -0.0574088861985
 C1 0.460557 0.997371 0.3850  -0.0574088861985
 C1 0.960548 0.497365 0.38505  -0.0574088861985
 C1 0.960552 0.99737 0.38505  -0.0574088861985
 C3 0.006873 0.059184 0.43005  -0.0750894576271
 C3 0.006878 0.559187 0.43005  -0.0750894576271
 C3 0.506869 0.059184 0.43005  -0.0750894576271
 C3 0.506873 0.559188 0.43005  -0.0750894576271
 C3 0.487659 0.451793 0.35648  -0.0750894576271
 C3 0.487664 0.951797 0.35647  -0.0750894576271
 C3 0.987653 0.45179 0.35648  -0.0750894576271
 C3 0.987658 0.951796 0.35647  -0.0750894576271
 C1 0.41533 0.273713 0.25117  -0.0574088861985
 C1 0.415335 0.773718 0.25116  -0.0574088861985
 C1 0.915324 0.273711 0.25117  -0.0574088861985
 C1 0.915331 0.773718 0.25116  -0.0574088861985
 C3 0.360614 0.268535 0.19937  -0.0750894576271
 C3 0.360617 0.768539 0.19936  -0.0750894576271
 C3 0.860611 0.268535 0.19936  -0.0750894576271
 C3 0.860615 0.76854 0.19936  -0.0750894576271
 C2 0.323237 0.20636 0.14195  0.700517542373
 C2 0.323242 0.706365 0.14194  0.700517542373
 C2 0.82323 0.206358 0.14195  0.700517542373
 C2 0.823237 0.706364 0.14195  0.700517542373
 C1 0.080641 0.075618 0.44890  -0.0574088861985
 C1 0.080645 0.57562 0.44890  -0.0574088861985
 C1 0.580639 0.07562 0.44890  -0.0574088861985
 C1 0.580642 0.575623 0.44890  -0.0574088861985
 C2 0.185848 0.046739 0.44603  0.700517542373
 C2 0.18585 0.546739 0.44603  0.700517542373
 C2 0.685845 0.04674 0.44603  0.700517542373
 C2 0.685848 0.546742 0.44603  0.700517542373
 C1 0.021986 0.177315 0.2972  -0.0574088861985
 C1 0.021993 0.677322 0.29721  -0.0574088861985
 C1 0.521986 0.177315 0.2972  -0.0574088861985
 C1 0.521988 0.677321 0.29721  -0.0574088861985
 C2 0.369582 0.390789 0.04382  0.700517542373
 C2 0.369586 0.890791 0.04382  0.700517542373
 C2 0.869578 0.390788 0.04382  0.700517542373
 C2 0.869581 0.890792 0.04382  0.700517542373
 C1 0.00288 0.11851 0.24533  -0.0574088861985
 C1 0.002887 0.618517 0.24532  -0.0574088861985
 C1 0.50288 0.11851 0.24533  -0.0574088861985
 C1 0.502881 0.618516 0.24532  -0.0574088861985
 C1 0.092703 0.03098 0.12360  -0.0574088861985
 C1 0.092708 0.530984 0.123  -0.0574088861985
 C1 0.592701 0.030978 0.12360  -0.0574088861985
 C1 0.592703 0.530984 0.12359  -0.0574088861985
 C3 0.077882 0.470072 0.07702  -0.0750894576271
 C3 0.077885 0.970076 0.07702  -0.0750894576271
 C3 0.577878 0.470072 0.07702  -0.0750894576271
 C3 0.577881 0.970074 0.07702  -0.0750894576271
 C1 0.12243 0.167877 0.19658  -0.0574088861985
 C1 0.122435 0.667882 0.19658  -0.0574088861985
 C1 0.62243 0.167875 0.19659  -0.0574088861985
 C1 0.622431 0.667881 0.19658  -0.0574088861985
 C3 0.053218 0.112206 0.19491  -0.0750894576271
 C3 0.053223 0.612211 0.19491  -0.0750894576271
 C3 0.553217 0.112206 0.19491  -0.0750894576271
 C3 0.553219 0.61221 0.19491  -0.0750894576271
 C1 0.46311 0.002718 0.11489  -0.0574088861985
 C1 0.463113 0.502722 0.11488  -0.0574088861985
 C1 0.963104 0.002718 0.1148  -0.0574088861985
 C1 0.963108 0.502722 0.11488  -0.0574088861985
 C3 0.447647 0.440902 0.06989  -0.0750894576271
 C3 0.447651 0.940906 0.0698  -0.0750894576271
 C3 0.947643 0.440902 0.06989  -0.0750894576271
 C3 0.947645 0.940906 0.06989  -0.0750894576271
 C3 0.035789 0.048281 0.14349  -0.0750894576271
 C3 0.035793 0.548285 0.14349  -0.0750894576271
 C3 0.535787 0.048279 0.14349  -0.0750894576271
 C3 0.535789 0.548286 0.14349  -0.0750894576271
 C1 0.141754 0.226326 0.24877  -0.0574088861985
 C1 0.141761 0.726332 0.24876  -0.0574088861985
 C1 0.641755 0.226325 0.24877  -0.0574088861985
 C1 0.641756 0.726331 0.24876  -0.0574088861985
 C3 0.092163 0.231588 0.30058  -0.0750894576271
 C3 0.09217 0.731595 0.30057  -0.0750894576271
 C3 0.592161 0.23159 0.30058  -0.0750894576271
 C3 0.592166 0.731592 0.30058  -0.0750894576271
 C2 0.117086 0.293746 0.35804  0.700517542373
 C2 0.117094 0.793752 0.35804  0.700517542373
 C2 0.617087 0.293746 0.3580  0.700517542373
 C2 0.617088 0.793752 0.35804  0.700517542373
 C1 0.005009 0.424463 0.05109  -0.0574088861985
 C1 0.005012 0.924468 0.05109  -0.0574088861985
 C1 0.505005 0.424465 0.0510  -0.0574088861985
 C1 0.505007 0.924464 0.05109  -0.0574088861985
 C2 0.139113 0.453318 0.05403  0.700517542373
 C2 0.139117 0.953323 0.05403  0.700517542373
 C2 0.639109 0.45332 0.0540  0.700517542373
 C2 0.639112 0.953318 0.05403  0.700517542373
 O1 0.224148 0.298808 0.91082  -0.719787457627
 O1 0.224151 0.798814 0.91082  -0.719787457627
 O1 0.724144 0.298808 0.91082  -0.719787457627
 O1 0.724149 0.798813 0.91082  -0.719787457627
 O2 0.163336 0.342354 0.85634  -0.599304457627
 O2 0.163339 0.84236 0.85634  -0.599304457627
 O2 0.663332 0.342354 0.85634  -0.599304457627
 O2 0.663335 0.842359 0.85634  -0.599304457627
 O2 0.271 0.393836 0.52158  -0.599304457627
 O2 0.271004 0.893838 0.52158  -0.599304457627
 O2 0.770995 0.393835 0.52158  -0.599304457627
 O2 0.770999 0.893837 0.52158  -0.599304457627
 O2 0.291928 0.498495 0.56619  -0.599304457627
 O2 0.291931 0.998497 0.56619  -0.599304457627
 O2 0.791922 0.498494 0.56619  -0.599304457627
 O2 0.791926 0.998496 0.56619  -0.599304457627
 O2 0.47186 0.332373 0.51283  -0.599304457627
 O2 0.471864 0.832375 0.51283  -0.599304457627
 O2 0.971855 0.332372 0.51283  -0.599304457627
 O2 0.971862 0.832376 0.51283  -0.599304457627
 O2 0.089549 0.407452 0.55631  -0.599304457627
 O2 0.089554 0.907456 0.55631  -0.599304457627
 O2 0.589545 0.407451 0.55631  -0.599304457627
 O2 0.589548 0.907454 0.55631  -0.599304457627
 O1 0.425261 0.201023 0.58920  -0.719787457627
 O1 0.425266 0.701028 0.58920  -0.719787457627
 O1 0.925256 0.201021 0.58920  -0.719787457627
 O1 0.925262 0.701028 0.58920  -0.719787457627
 O2 0.320606 0.157711 0.64355  -0.599304457627
 O2 0.320611 0.657716 0.64355  -0.599304457627
 O2 0.8206 0.157709 0.6435  -0.599304457627
 O2 0.820611 0.657714 0.64355  -0.599304457627
 O2 0.377215 0.106177 0.97832  -0.599304457627
 O2 0.377218 0.606179 0.97832  -0.599304457627
 O2 0.877209 0.106174 0.97832  -0.599304457627
 O2 0.877214 0.606178 0.97832  -0.599304457627
 O2 0.29344 0.0015 0.9337  -0.599304457627
 O2 0.293443 0.501502 0.93375  -0.599304457627
 O2 0.793435 0.001498 0.93375  -0.599304457627
 O2 0.793439 0.501501 0.93375  -0.599304457627
 O2 0.139435 0.167595 0.98720  -0.599304457627
 O2 0.139439 0.667597 0.98720  -0.599304457627
 O2 0.639431 0.167595 0.98720  -0.599304457627
 O2 0.639435 0.667598 0.98720  -0.599304457627
 O2 0.182226 0.092645 0.94373  -0.599304457627
 O2 0.18223 0.592647 0.94373  -0.599304457627
 O2 0.682221 0.092645 0.94373  -0.599304457627
 O2 0.682225 0.592648 0.94373  -0.599304457627
 O1 0.275864 0.20121 0.08917  -0.719787457627
 O1 0.27587 0.701215 0.08916  -0.719787457627
 O1 0.775862 0.20121 0.08917  -0.719787457627
 O1 0.775866 0.701215 0.08916  -0.719787457627
 O2 0.336695 0.157672 0.14363  -0.599304457627
 O2 0.336696 0.657675 0.14363  -0.599304457627
 O2 0.836691 0.15767 0.14363  -0.599304457627
 O2 0.836695 0.657676 0.14363  -0.599304457627
 O2 0.22902 0.106194 0.47840  -0.599304457627
 O2 0.229023 0.606195 0.47840  -0.599304457627
 O2 0.729016 0.106194 0.47840  -0.599304457627
 O2 0.72902 0.606196 0.47840  -0.599304457627
 O2 0.208094 0.001533 0.43380  -0.599304457627
 O2 0.208096 0.501534 0.43380  -0.599304457627
 O2 0.708089 0.001533 0.43380  -0.599304457627
 O2 0.708092 0.501536 0.43380  -0.599304457627
 O2 0.028148 0.167646 0.48715  -0.599304457627
 O2 0.028155 0.66765 0.48714  -0.599304457627
 O2 0.528146 0.167647 0.4871  -0.599304457627
 O2 0.52815 0.66765 0.48714  -0.599304457627
 O2 0.410462 0.092559 0.44367  -0.599304457627
 O2 0.410466 0.592563 0.44367  -0.599304457627
 O2 0.910456 0.092558 0.44367  -0.599304457627
 O2 0.910461 0.592563 0.44367  -0.599304457627
 O1 0.074757 0.298998 0.41078  -0.719787457627
 O1 0.074763 0.799005 0.4107  -0.719787457627
 O1 0.574755 0.299001 0.41078  -0.719787457627
 O1 0.574758 0.799004 0.41078  -0.719787457627
 O2 0.179408 0.342309 0.3564  -0.599304457627
 O2 0.179418 0.842314 0.35642  -0.599304457627
 O2 0.679407 0.34231 0.35642  -0.599304457627
 O2 0.679413 0.842312 0.35642  -0.599304457627
 O2 0.122816 0.393858 0.02166  -0.599304457627
 O2 0.122819 0.893862 0.02166  -0.599304457627
 O2 0.622812 0.393858 0.02166  -0.599304457627
 O2 0.622814 0.893859 0.02166  -0.599304457627
 O2 0.206585 0.498534 0.06625  -0.599304457627
 O2 0.206588 0.998538 0.06625  -0.599304457627
 O2 0.706581 0.498534 0.06625  -0.599304457627
 O2 0.706583 0.998534 0.0662  -0.599304457627
 O2 0.360592 0.33242 0.01277  -0.599304457627
 O2 0.360596 0.832424 0.01277  -0.599304457627
 O2 0.860588 0.33242 0.01277  -0.599304457627
 O2 0.860591 0.832424 0.01277  -0.599304457627
 O2 0.317791 0.40736 0.05625  -0.599304457627
 O2 0.317795 0.907365 0.05625  -0.599304457627
 O2 0.817787 0.40736 0.05625  -0.599304457627
 O2 0.817789 0.907364 0.05625  -0.599304457627
