#======================================================================

# CRYSTAL DATA

#----------------------------------------------------------------------

data_VESTA_phase_1


_pd_phase_name                         MOF
_cell_length_a                         16.17100
_cell_length_b                         16.18600
_cell_length_c                         26.82300
_cell_angle_alpha                      84.50600
_cell_angle_beta                       84.47500
_cell_angle_gamma                      84.44100
_symmetry_space_group_name_H-M         "P 1"
_symmetry_Int_Tables_number            1

loop_
_symmetry_equiv_pos_as_xyz
   "x, y, z"

loop_
   _atom_site_label
   _atom_site_fract_x
   _atom_site_fract_y
   _atom_site_fract_z
 _atom_site_charge
 Zn1 0.722168 0.327031 0.49341  0.919422447368
 Zn1 0.895491 0.315602 0.47090  0.919422447368
 Zn1 0.326663 0.725548 0.99186  0.919422447368
 Zn1 0.313682 0.898814 0.97064  0.919422447368
 Zn1 0.673346 0.274435 0.00816  0.919422447368
 Zn1 0.686203 0.101178 0.02937  0.919422447368
 Zn1 0.277852 0.672973 0.50660  0.919422447368
 Zn1 0.104529 0.684401 0.52911  0.919422447368
 H1 0.666931 0.561797 0.38607  0.0969400944272
 H1 0.669422 0.695578 0.33299  0.0969400944272
 H1 0.93698 0.681662 0.33511  0.0969400944272
 H1 0.932554 0.545954 0.38774  0.0969400944272
 H1 0.697213 0.838492 0.29936  0.0969400944272
 H1 0.714241 0.756344 0.25817  0.0969400944272
 H1 0.649086 0.926983 0.22152  0.0969400944272
 H1 0.720957 0.940513 0.1668  0.0969400944272
 H1 0.620808 0.691327 0.1596  0.0969400944272
 H1 0.504386 0.682479 0.10565  0.0969400944272
 H1 0.468884 0.948733 0.08723  0.0969400944272
 H1 0.583168 0.95986 0.1409  0.0969400944272
 H1 0.856681 0.91616 0.27674  0.0969400944272
 H1 0.837854 0.98187 0.22052  0.0969400944272
 H1 0.632371 0.084012 0.32284  0.0969400944272
 H1 0.657333 0.192482 0.37893  0.0969400944272
 H1 0.921072 0.136499 0.35089  0.0969400944272
 H1 0.898204 0.029125 0.29504  0.0969400944272
 H1 0.899615 0.804501 0.2208  0.0969400944272
 H1 0.825541 0.767977 0.18452  0.0969400944272
 H1 0.969106 0.732575 0.1580  0.0969400944272
 H1 0.102266 0.710316 0.10452  0.0969400944272
 H1 0.072588 0.962375 0.03906  0.0969400944272
 H1 0.93759 0.986066 0.09148  0.0969400944272
 H1 0.015631 0.414215 0.5086  0.0969400944272
 H1 0.167983 0.409915 0.51447  0.0969400944272
 H1 0.195 0.188593 0.43310  0.0969400944272
 H1 0.040647 0.203951 0.43015  0.0969400944272
 H1 0.318478 0.235985 0.45907  0.0969400944272
 H1 0.297516 0.398024 0.51285  0.0969400944272
 H1 0.448773 0.221442 0.45976  0.0969400944272
 H1 0.602016 0.221735 0.46278  0.0969400944272
 H1 0.575235 0.435522 0.53765  0.0969400944272
 H1 0.419143 0.446992 0.53672  0.0969400944272
 H1 0.56184 0.670598 0.88745  0.0969400944272
 H1 0.696293 0.672186 0.83471  0.0969400944272
 H1 0.67986 0.94021 0.83274  0.0969400944272
 H1 0.543555 0.936618 0.88497  0.0969400944272
 H1 0.838616 0.699799 0.79960  0.0969400944272
 H1 0.755595 0.715464 0.75899  0.0969400944272
 H1 0.925574 0.650442 0.72136  0.0969400944272
 H1 0.938349 0.72163 0.66638  0.0969400944272
 H1 0.689247 0.622629 0.65907  0.0969400944272
 H1 0.680688 0.505779 0.60538  0.0969400944272
 H1 0.947212 0.467769 0.58919  0.0969400944272
 H1 0.957984 0.582509 0.6426  0.0969400944272
 H1 0.91579 0.858684 0.77544  0.0969400944272
 H1 0.980494 0.839423 0.71887  0.0969400944272
 H1 0.085309 0.635357 0.82077  0.0969400944272
 H1 0.193389 0.660963 0.87695  0.0969400944272
 H1 0.134888 0.924229 0.84973  0.0969400944272
 H1 0.027824 0.900708 0.79383  0.0969400944272
 H1 0.802428 0.900482 0.72035  0.0969400944272
 H1 0.765645 0.825753 0.68461  0.0969400944272
 H1 0.729678 0.969096 0.65751  0.0969400944272
 H1 0.70735 0.102545 0.60436  0.0969400944272
 H1 0.960014 0.074104 0.53932  0.0969400944272
 H1 0.983836 0.938844 0.59142  0.0969400944272
 H1 0.411553 0.018212 0.0101  0.0969400944272
 H1 0.407863 0.170506 0.0158  0.0969400944272
 H1 0.188827 0.198519 0.93234  0.0969400944272
 H1 0.203359 0.044305 0.92965  0.0969400944272
 H1 0.23614 0.321467 0.95856  0.0969400944272
 H1 0.398185 0.300825 0.01239  0.0969400944272
 H1 0.224263 0.451547 0.9560  0.0969400944272
 H1 0.223815 0.604744 0.9588  0.0969400944272
 H1 0.433323 0.579152 0.03767  0.0969400944272
 H1 0.445278 0.423152 0.03735  0.0969400944272
 H1 0.438085 0.329381 0.11257  0.0969400944272
 H1 0.303594 0.327806 0.16527  0.0969400944272
 H1 0.320061 0.059776 0.16730  0.0969400944272
 H1 0.456398 0.063356 0.11510  0.0969400944272
 H1 0.161261 0.300218 0.20042  0.0969400944272
 H1 0.244333 0.284518 0.24100  0.0969400944272
 H1 0.074372 0.349548 0.27867  0.0969400944272
 H1 0.061635 0.278359 0.33365  0.0969400944272
 H1 0.310741 0.377345 0.34094  0.0969400944272
 H1 0.319316 0.494191 0.39463  0.0969400944272
 H1 0.052793 0.532221 0.4108  0.0969400944272
 H1 0.042005 0.417485 0.35739  0.0969400944272
 H1 0.084126 0.141281 0.22462  0.0969400944272
 H1 0.019441 0.160575 0.28119  0.0969400944272
 H1 0.914621 0.3646 0.17926  0.0969400944272
 H1 0.806565 0.338985 0.12306  0.0969400944272
 H1 0.865097 0.075722 0.15028  0.0969400944272
 H1 0.972138 0.099251 0.20619  0.0969400944272
 H1 0.197532 0.099516 0.27966  0.0969400944272
 H1 0.234338 0.174251 0.31538  0.0969400944272
 H1 0.270324 0.030904 0.34249  0.0969400944272
 H1 0.292665 0.897451 0.39564  0.0969400944272
 H1 0.040015 0.925891 0.4607  0.0969400944272
 H1 0.016181 0.061153 0.40861  0.0969400944272
 H1 0.58835 0.981741 0.98990  0.0969400944272
 H1 0.592073 0.829446 0.98419  0.0969400944272
 H1 0.811167 0.801502 0.06766  0.0969400944272
 H1 0.796598 0.955721 0.07034  0.0969400944272
 H1 0.763854 0.678528 0.04146  0.0969400944272
 H1 0.601805 0.699148 0.98763  0.0969400944272
 H1 0.775738 0.548435 0.04396  0.0969400944272
 H1 0.776186 0.395237 0.0411  0.0969400944272
 H1 0.566673 0.420824 0.96236  0.0969400944272
 H1 0.554718 0.576824 0.96267  0.0969400944272
 H1 0.33307 0.438173 0.6139  0.0969400944272
 H1 0.330543 0.304392 0.66700  0.0969400944272
 H1 0.062986 0.318353 0.66485  0.0969400944272
 H1 0.06745 0.454059 0.6122  0.0969400944272
 H1 0.302724 0.161512 0.70064  0.0969400944272
 H1 0.285727 0.243677 0.74181  0.0969400944272
 H1 0.350882 0.073063 0.77849  0.0969400944272
 H1 0.27902 0.059565 0.83315  0.0969400944272
 H1 0.379219 0.308733 0.84036  0.0969400944272
 H1 0.495614 0.317553 0.89436  0.0969400944272
 H1 0.531011 0.051294 0.91282  0.0969400944272
 H1 0.41675 0.040195 0.85905  0.0969400944272
 H1 0.143286 0.083834 0.72329  0.0969400944272
 H1 0.162119 0.018161 0.77952  0.0969400944272
 H1 0.367605 0.91602 0.67718  0.0969400944272
 H1 0.342656 0.807568 0.62108  0.0969400944272
 H1 0.078913 0.863489 0.64914  0.0969400944272
 H1 0.101769 0.970853 0.70501  0.0969400944272
 H1 0.100346 0.195526 0.77915  0.0969400944272
 H1 0.174418 0.232064 0.81548  0.0969400944272
 H1 0.030843 0.267438 0.84196  0.0969400944272
 H1 0.89768 0.289666 0.89550  0.0969400944272
 H1 0.927366 0.037585 0.96092  0.0969400944272
 H1 0.06237 0.013922 0.90850  0.0969400944272
 H1 0.984392 0.585781 0.49134  0.0969400944272
 H1 0.83204 0.590072 0.48555  0.0969400944272
 H1 0.805013 0.811382 0.56692  0.0969400944272
 H1 0.959368 0.796034 0.56987  0.0969400944272
 H1 0.68154 0.763989 0.54095  0.0969400944272
 H1 0.702502 0.601972 0.4871  0.0969400944272
 H1 0.551251 0.778551 0.54025  0.0969400944272
 H1 0.398006 0.778261 0.53724  0.0969400944272
 H1 0.424777 0.564476 0.46237  0.0969400944272
 H1 0.580871 0.553003 0.46329  0.0969400944272
 C1 0.799021 0.464356 0.42339  0.700032447368
 C2 0.799497 0.545031 0.39073  -0.0861475526316
 C3 0.726053 0.588219 0.37490  -0.135278348086
 C3 0.727564 0.663479 0.34474  -0.135278348086
 C4 0.804055 0.69679 0.33020  0.299607447368
 C3 0.878093 0.654749 0.346  -0.135278348086
 C3 0.87539 0.579669 0.37578  -0.135278348086
 C5 0.743614 0.805521 0.2736  0.0824074473684
 C6 0.77485 0.867636 0.23048  -0.0662475526316
 C5 0.701292 0.896446 0.1986  0.0824074473684
 C4 0.609479 0.825369 0.15344  0.299607447368
 C3 0.586367 0.747367 0.14374  -0.135278348086
 C3 0.521916 0.742672 0.11389  -0.135278348086
 C2 0.47931 0.81544 0.09284  -0.0861475526316
 C3 0.50171 0.892592 0.10398  -0.135278348086
 C3 0.565952 0.898739 0.13425  -0.135278348086
 C1 0.415877 0.810438 0.05643  0.700032447368
 C5 0.809028 0.941373 0.25128  0.0824074473684
 C4 0.763059 0.048561 0.30627  0.299607447368
 C3 0.695397 0.095835 0.32957  -0.135278348086
 C3 0.709521 0.155789 0.36062  -0.135278348086
 C2 0.790988 0.170647 0.36920  -0.0861475526316
 C3 0.857849 0.124712 0.34465  -0.135278348086
 C3 0.844792 0.064058 0.31329  -0.135278348086
 C1 0.805056 0.231321 0.40561  0.700032447368
 C5 0.846748 0.823701 0.19819  0.0824074473684
 C4 0.945192 0.861413 0.12833  0.299607447368
 C3 0.990867 0.783216 0.13194  -0.135278348086
 C3 0.065788 0.770571 0.10192  -0.135278348086
 C2 0.096218 0.834784 0.06863  -0.0861475526316
 C3 0.04888 0.912371 0.06495  -0.135278348086
 C3 0.973946 0.925717 0.0940  -0.135278348086
 C1 0.178321 0.822912 0.0379  0.700032447368
 C7 0.058375 0.366041 0.49216  0.164098697368
 C3 0.143436 0.362604 0.49534  -0.135278348086
 C2 0.195869 0.298291 0.47410  -0.0861475526316
 C3 0.157829 0.239995 0.45025  -0.135278348086
 C7 0.072026 0.247782 0.44842  0.164098697368
 C3 0.285864 0.290189 0.47599  -0.135278348086
 C3 0.329794 0.343433 0.49628  -0.135278348086
 C2 0.419889 0.33553 0.49773  -0.0861475526316
 C3 0.473232 0.270795 0.47731  -0.135278348086
 C7 0.558551 0.269805 0.47892  0.164098697368
 C7 0.543779 0.39016 0.52062  0.164098697368
 C3 0.457643 0.395718 0.52021  -0.135278348086
 C1 0.462958 0.803295 0.92245  0.700032447368
 C2 0.543883 0.803441 0.88999  -0.0861475526316
 C3 0.587904 0.72959 0.87543  -0.135278348086
 C3 0.663477 0.730588 0.84549  -0.135278348086
 C4 0.696198 0.806977 0.82991  0.299607447368
 C3 0.653349 0.881424 0.84485  -0.135278348086
 C3 0.57795 0.879195 0.87403  -0.135278348086
 C5 0.805006 0.745468 0.7738  0.0824074473684
 C6 0.866312 0.77618 0.73007  -0.0662475526316
 C5 0.894659 0.70231 0.69845  0.0824074473684
 C4 0.823372 0.610076 0.65391  0.299607447368
 C3 0.745363 0.58755 0.64373  -0.135278348086
 C3 0.74083 0.522893 0.61406  -0.135278348086
 C2 0.813765 0.479545 0.59369  -0.0861475526316
 C3 0.890928 0.501314 0.6053  -0.135278348086
 C3 0.896878 0.565794 0.63542  -0.135278348086
 C1 0.808809 0.416078 0.55736  0.700032447368
 C5 0.940587 0.810823 0.75004  0.0824074473684
 C4 0.04846 0.76573 0.80472  0.299607447368
 C3 0.096471 0.698414 0.82773  -0.135278348086
 C3 0.156218 0.712911 0.85883  -0.135278348086
 C2 0.17019 0.794416 0.86774  -0.0861475526316
 C3 0.123746 0.860957 0.84332  -0.135278348086
 C3 0.063244 0.847524 0.81191  -0.135278348086
 C1 0.230363 0.80868 0.90443  0.700032447368
 C5 0.821538 0.847439 0.6978  0.0824074473684
 C4 0.858797 0.945778 0.62792  0.299607447368
 C3 0.780424 0.991196 0.63157  -0.135278348086
 C3 0.76774 0.06624 0.60178  -0.135278348086
 C2 0.832094 0.096997 0.56868  -0.0861475526316
 C3 0.909912 0.050022 0.56502  -0.135278348086
 C3 0.923305 0.974956 0.59394  -0.135278348086
 C1 0.819928 0.179143 0.53822  0.700032447368
 C7 0.364033 0.061157 0.99318  0.164098697368
 C3 0.361008 0.146166 0.99624  -0.135278348086
 C2 0.297662 0.198871 0.97423  -0.0861475526316
 C3 0.239596 0.16113 0.95000  -0.135278348086
 C7 0.246927 0.07539 0.9483  0.164098697368
 C3 0.290217 0.288874 0.97564  -0.135278348086
 C3 0.343734 0.332968 0.99558  -0.135278348086
 C2 0.335948 0.42313 0.99643  -0.0861475526316
 C3 0.272383 0.476212 0.97461  -0.135278348086
 C7 0.27105 0.56153 0.97600  0.164098697368
 C7 0.389028 0.547414 0.01990  0.164098697368
 C3 0.394807 0.461286 0.01981  -0.135278348086
 C1 0.537001 0.196675 0.07760  0.700032447368
 C2 0.456066 0.196534 0.11006  -0.0861475526316
 C3 0.41202 0.27039 0.12460  -0.135278348086
 C3 0.336425 0.269398 0.1545  -0.135278348086
 C4 0.303696 0.193014 0.17009  0.299607447368
 C3 0.34657 0.118562 0.15518  -0.135278348086
 C3 0.421989 0.120785 0.12602  -0.135278348086
 C5 0.194894 0.254532 0.22614  0.0824074473684
 C6 0.133629 0.223812 0.26995  -0.0662475526316
 C5 0.105304 0.29768 0.3015  0.0824074473684
 C4 0.176616 0.389912 0.34611  0.299607447368
 C3 0.254628 0.41243 0.35629  -0.135278348086
 C3 0.25917 0.477083 0.38595  -0.135278348086
 C2 0.186241 0.520443 0.40633  -0.0861475526316
 C3 0.109074 0.498674 0.394  -0.135278348086
 C3 0.103115 0.434196 0.36460  -0.135278348086
 C1 0.191205 0.583911 0.44265  0.700032447368
 C5 0.059339 0.189158 0.2500  0.0824074473684
 C4 0.951479 0.234228 0.19531  0.299607447368
 C3 0.90347 0.301542 0.17230  -0.135278348086
 C3 0.843738 0.287041 0.14119  -0.135278348086
 C2 0.829775 0.205535 0.13228  -0.0861475526316
 C3 0.876226 0.138996 0.15669  -0.135278348086
 C3 0.936714 0.152433 0.18811  -0.135278348086
 C1 0.769613 0.191278 0.0955  0.700032447368
 C5 0.178435 0.152558 0.30217  0.0824074473684
 C4 0.141211 0.054217 0.37210  0.299607447368
 C3 0.219585 0.008801 0.36844  -0.135278348086
 C3 0.232276 0.933757 0.39823  -0.135278348086
 C2 0.167926 0.902997 0.43133  -0.0861475526316
 C3 0.090111 0.949975 0.43500  -0.135278348086
 C3 0.076711 0.02504 0.40608  -0.135278348086
 C1 0.180095 0.820851 0.46179  0.700032447368
 C7 0.635895 0.938813 0.00685  0.164098697368
 C3 0.638935 0.853803 0.00379  -0.135278348086
 C2 0.702309 0.801116 0.02579  -0.0861475526316
 C3 0.760378 0.838877 0.05000  -0.135278348086
 C7 0.753031 0.924619 0.05168  0.164098697368
 C3 0.709771 0.711112 0.02438  -0.135278348086
 C3 0.656258 0.66701 0.00444  -0.135278348086
 C2 0.664052 0.576849 0.00358  -0.0861475526316
 C3 0.727615 0.523768 0.02541  -0.135278348086
 C7 0.728951 0.43845 0.02402  0.164098697368
 C7 0.61097 0.452563 0.98012  0.164098697368
 C3 0.605188 0.538691 0.98022  -0.135278348086
 C1 0.200995 0.535655 0.57661  0.700032447368
 C2 0.200505 0.454965 0.6092  -0.0861475526316
 C3 0.27394 0.411763 0.62509  -0.135278348086
 C3 0.272409 0.336504 0.65525  -0.135278348086
 C4 0.195908 0.303211 0.66978  0.299607447368
 C3 0.121881 0.345257 0.65358  -0.135278348086
 C3 0.124604 0.420336 0.62419  -0.135278348086
 C5 0.256338 0.194498 0.72631  0.0824074473684
 C6 0.225115 0.132401 0.76953  -0.0662475526316
 C5 0.298682 0.103615 0.80138  0.0824074473684
 C4 0.390493 0.17469 0.8465  0.299607447368
 C3 0.413629 0.252685 0.85626  -0.135278348086
 C3 0.478067 0.257364 0.88612  -0.135278348086
 C2 0.520639 0.184587 0.90719  -0.0861475526316
 C3 0.498214 0.107442 0.89606  -0.135278348086
 C3 0.433983 0.101311 0.86577  -0.135278348086
 C1 0.584074 0.189569 0.94360  0.700032447368
 C5 0.190942 0.058642 0.74875  0.0824074473684
 C4 0.236915 0.951445 0.69376  0.299607447368
 C3 0.304581 0.904189 0.67045  -0.135278348086
 C3 0.290465 0.844246 0.63939  -0.135278348086
 C2 0.209001 0.829375 0.63082  -0.0861475526316
 C3 0.142135 0.875288 0.65538  -0.135278348086
 C3 0.155185 0.935936 0.68675  -0.135278348086
 C1 0.194945 0.768717 0.59439  0.700032447368
 C5 0.153217 0.176335 0.80182  0.0824074473684
 C4 0.054769 0.138593 0.87167  0.299607447368
 C3 0.009086 0.216785 0.86807  -0.135278348086
 C3 0.934164 0.229413 0.89809  -0.135278348086
 C2 0.903738 0.165187 0.93137  -0.0861475526316
 C3 0.951076 0.0876 0.93503  -0.135278348086
 C3 0.026012 0.074271 0.90590  -0.135278348086
 C1 0.821645 0.177062 0.96208  0.700032447368
 C7 0.941646 0.633949 0.50785  0.164098697368
 C3 0.856585 0.637386 0.50467  -0.135278348086
 C2 0.804149 0.70169 0.52591  -0.0861475526316
 C3 0.842187 0.759988 0.54976  -0.135278348086
 C7 0.927991 0.752202 0.55160  0.164098697368
 C3 0.714155 0.709793 0.52402  -0.135278348086
 C3 0.670226 0.65656 0.50373  -0.135278348086
 C2 0.580129 0.664458 0.50229  -0.0861475526316
 C3 0.52679 0.729203 0.52270  -0.135278348086
 C7 0.441469 0.730186 0.52110  0.164098697368
 C7 0.456235 0.609832 0.47940  0.164098697368
 C3 0.542373 0.604281 0.47980  -0.135278348086
 N1 0.59395 0.328914 0.4997  -0.298697552632
 N1 0.022724 0.309927 0.46900  -0.298697552632
 N1 0.32875 0.59726 0.99792  -0.298697552632
 N1 0.308327 0.025842 0.96948  -0.298697552632
 N1 0.671245 0.402718 0.00211  -0.298697552632
 N1 0.691604 0.974147 0.03054  -0.298697552632
 N1 0.406068 0.671091 0.5002  -0.298697552632
 N1 0.977296 0.690067 0.53101  -0.298697552632
 O1 0.729562 0.441628 0.44376  -0.606687552632
 O1 0.870726 0.425361 0.42896  -0.606687552632
 O2 0.813292 0.769348 0.30014  -0.277310052632
 O2 0.676694 0.821961 0.18109  -0.277310052632
 O1 0.398969 0.737471 0.04844  -0.606687552632
 O1 0.385086 0.878322 0.03481  -0.606687552632
 O2 0.742373 0.988419 0.27807  -0.277310052632
 O1 0.879471 0.247115 0.41009  -0.606687552632
 O1 0.739773 0.261976 0.43066  -0.606687552632
 O2 0.871624 0.881352 0.15655  -0.277310052632
 O1 0.215374 0.749886 0.03737  -0.606687552632
 O1 0.204964 0.888832 0.01444  -0.606687552632
 O1 0.440732 0.733863 0.94312  -0.606687552632
 O1 0.423333 0.874746 0.92758  -0.606687552632
 O2 0.768965 0.81565 0.79991  -0.277310052632
 O2 0.819872 0.677397 0.68141  -0.277310052632
 O1 0.7357 0.399055 0.54958  -0.606687552632
 O1 0.876665 0.385466 0.53558  -0.606687552632
 O2 0.988339 0.744575 0.77666  -0.277310052632
 O1 0.246001 0.882998 0.90910  -0.606687552632
 O1 0.260767 0.743379 0.92953  -0.606687552632
 O2 0.878662 0.872041 0.65587  -0.277310052632
 O1 0.746491 0.21548 0.53774  -0.606687552632
 O1 0.885617 0.206538 0.51488  -0.606687552632
 O1 0.559258 0.2661 0.05695  -0.606687552632
 O1 0.576606 0.125213 0.0724  -0.606687552632
 O2 0.23089 0.18436 0.20007  -0.277310052632
 O2 0.180106 0.322595 0.318  -0.277310052632
 O1 0.264315 0.600927 0.45043  -0.606687552632
 O1 0.123351 0.614531 0.46443  -0.606687552632
 O2 0.011583 0.255394 0.22338  -0.277310052632
 O1 0.753956 0.116969 0.09090  -0.606687552632
 O1 0.739236 0.256589 0.07047  -0.606687552632
 O2 0.121339 0.127955 0.34415  -0.277310052632
 O1 0.253529 0.784504 0.46225  -0.606687552632
 O1 0.114409 0.793467 0.48513  -0.606687552632
 O1 0.270458 0.558394 0.55626  -0.606687552632
 O1 0.129293 0.574656 0.57104  -0.606687552632
 O2 0.186654 0.230672 0.69986  -0.277310052632
 O2 0.323294 0.178108 0.81890  -0.277310052632
 O1 0.600983 0.262528 0.95161  -0.606687552632
 O1 0.614875 0.121673 0.96520  -0.606687552632
 O2 0.257597 0.011583 0.72197  -0.277310052632
 O1 0.12054 0.752877 0.58993  -0.606687552632
 O1 0.260233 0.738128 0.56932  -0.606687552632
 O2 0.128353 0.118678 0.84346  -0.277310052632
 O1 0.784611 0.250099 0.96264  -0.606687552632
 O1 0.794997 0.111154 0.98558  -0.606687552632
