#======================================================================

# CRYSTAL DATA

#----------------------------------------------------------------------

data_VESTA_phase_1


_pd_phase_name                         MOF
_cell_length_a                         15.88500
_cell_length_b                         18.33800
_cell_length_c                         19.60200
_cell_angle_alpha                      92.92600
_cell_angle_beta                       114.07400
_cell_angle_gamma                      82.71300
_symmetry_space_group_name_H-M         "P 1"
_symmetry_Int_Tables_number            1

loop_
_symmetry_equiv_pos_as_xyz
   "x, y, z"

loop_
   _atom_site_label
   _atom_site_fract_x
   _atom_site_fract_y
   _atom_site_fract_z
 _atom_site_charge
 Cd1 4.4e-05 0.249976 0.25000  0.720452142857
 Cd1 4.9e-05 0.249976 0.74998  0.720452142857
 Cd1 4.6e-05 0.749963 0.25000  0.720452142857
 Cd1 5e-05 0.749963 0.74998  0.720452142857
 Cd1 0.500036 0.249976 0.25000  0.720452142857
 Cd1 0.50004 0.249976 0.74998  0.720452142857
 Cd1 0.500038 0.749963 0.25000  0.720452142857
 Cd1 0.500042 0.749963 0.74998  0.720452142857
 Cd1 0.25004 0.249975 0.25000  0.720452142857
 Cd1 0.250045 0.249974 0.74998  0.720452142857
 Cd1 0.250042 0.749961 0.25000  0.720452142857
 Cd1 0.250046 0.749961 0.74998  0.720452142857
 Cd1 0.75003 0.249978 0.24999  0.720452142857
 Cd1 0.750035 0.249978 0.74998  0.720452142857
 Cd1 0.750032 0.749965 0.24999  0.720452142857
 Cd1 0.750036 0.749965 0.74998  0.720452142857
 Cd2 0.250045 0.999978 9e-0  1.01063714286
 Cd2 0.250042 0.999982 0.49999  1.01063714286
 Cd2 0.250046 0.499965 9e-0  1.01063714286
 Cd2 0.250043 0.499969 0.49999  1.01063714286
 Cd2 0.750038 0.999981 6e-0  1.01063714286
 Cd2 0.750035 0.999984 0.49999  1.01063714286
 Cd2 0.750039 0.499967 6e-0  1.01063714286
 Cd2 0.750036 0.499971 0.49999  1.01063714286
 H1 0.027854 0.116609 0.12018  0.0855652678571
 H1 0.027858 0.116608 0.62017  0.0855652678571
 H1 0.027856 0.616597 0.1201  0.0855652678571
 H1 0.02786 0.616596 0.62017  0.0855652678571
 H1 0.527847 0.11661 0.1201  0.0855652678571
 H1 0.527851 0.116609 0.62017  0.0855652678571
 H1 0.527849 0.616597 0.1201  0.0855652678571
 H1 0.527853 0.616596 0.62017  0.0855652678571
 H1 0.464789 0.047241 0.06275  0.0855652678571
 H1 0.464792 0.04724 0.56273  0.0855652678571
 H1 0.464791 0.547228 0.06275  0.0855652678571
 H1 0.464794 0.547228 0.56273  0.0855652678571
 H1 0.964778 0.047241 0.0627  0.0855652678571
 H1 0.964781 0.04724 0.56273  0.0855652678571
 H1 0.96478 0.547229 0.0627  0.0855652678571
 H1 0.964783 0.547228 0.56273  0.0855652678571
 H1 0.055534 0.04262 0.23417  0.0855652678571
 H1 0.055538 0.042618 0.73416  0.0855652678571
 H1 0.055535 0.542607 0.23417  0.0855652678571
 H1 0.055539 0.542605 0.73416  0.0855652678571
 H1 0.555533 0.04262 0.23417  0.0855652678571
 H1 0.555537 0.042618 0.73416  0.0855652678571
 H1 0.555534 0.542606 0.23417  0.0855652678571
 H1 0.555538 0.542604 0.73416  0.0855652678571
 H1 0.001565 0.47042 0.17614  0.0855652678571
 H1 0.001568 0.470418 0.67613  0.0855652678571
 H1 0.001567 0.970406 0.17614  0.0855652678571
 H1 0.00157 0.970405 0.67613  0.0855652678571
 H1 0.501565 0.470419 0.17615  0.0855652678571
 H1 0.501568 0.470417 0.67613  0.0855652678571
 H1 0.501567 0.970405 0.17615  0.0855652678571
 H1 0.50157 0.970404 0.67613  0.0855652678571
 H1 0.091433 0.383547 0.11970  0.0855652678571
 H1 0.091436 0.383546 0.6196  0.0855652678571
 H1 0.091434 0.883534 0.11970  0.0855652678571
 H1 0.091438 0.883533 0.6196  0.0855652678571
 H1 0.591428 0.383551 0.11970  0.0855652678571
 H1 0.591431 0.383549 0.61968  0.0855652678571
 H1 0.591429 0.883538 0.119  0.0855652678571
 H1 0.591433 0.883537 0.61968  0.0855652678571
 H1 0.09702 0.453273 0.06269  0.0855652678571
 H1 0.097023 0.453271 0.56267  0.0855652678571
 H1 0.097022 0.95326 0.06269  0.0855652678571
 H1 0.097026 0.953259 0.56267  0.0855652678571
 H1 0.597017 0.453278 0.06269  0.0855652678571
 H1 0.597021 0.453276 0.56267  0.0855652678571
 H1 0.59702 0.953266 0.06269  0.0855652678571
 H1 0.597023 0.953264 0.56267  0.0855652678571
 H1 0.178451 0.456851 0.23412  0.0855652678571
 H1 0.178455 0.456849 0.73411  0.0855652678571
 H1 0.178453 0.956837 0.23412  0.0855652678571
 H1 0.178456 0.956835 0.73411  0.0855652678571
 H1 0.67845 0.456852 0.23412  0.0855652678571
 H1 0.678454 0.45685 0.73410  0.0855652678571
 H1 0.678452 0.956839 0.23412  0.0855652678571
 H1 0.678456 0.956837 0.73410  0.0855652678571
 H1 0.174339 0.029393 0.17650  0.0855652678571
 H1 0.174342 0.029391 0.6764  0.0855652678571
 H1 0.17434 0.529379 0.17650  0.0855652678571
 H1 0.174344 0.529378 0.67648  0.0855652678571
 H1 0.674334 0.029396 0.17650  0.0855652678571
 H1 0.674338 0.029395 0.67648  0.0855652678571
 H1 0.674336 0.529383 0.17650  0.0855652678571
 H1 0.674339 0.529381 0.67648  0.0855652678571
 H1 0.472221 0.383346 0.37980  0.0855652678571
 H1 0.472225 0.383346 0.87979  0.0855652678571
 H1 0.472223 0.883334 0.37980  0.0855652678571
 H1 0.472227 0.883333 0.87979  0.0855652678571
 H1 0.972214 0.383347 0.37980  0.0855652678571
 H1 0.972218 0.383346 0.87979  0.0855652678571
 H1 0.972216 0.883334 0.37980  0.0855652678571
 H1 0.97222 0.883333 0.87979  0.0855652678571
 H1 0.035292 0.452712 0.43725  0.0855652678571
 H1 0.035295 0.452711 0.93723  0.0855652678571
 H1 0.035294 0.9527 0.4372  0.0855652678571
 H1 0.035297 0.952699 0.93723  0.0855652678571
 H1 0.535281 0.452712 0.43724  0.0855652678571
 H1 0.535285 0.452712 0.93723  0.0855652678571
 H1 0.535284 0.9527 0.43724  0.0855652678571
 H1 0.535287 0.952699 0.93723  0.0855652678571
 H1 0.444544 0.457342 0.26582  0.0855652678571
 H1 0.444548 0.45734 0.76580  0.0855652678571
 H1 0.444545 0.957329 0.26582  0.0855652678571
 H1 0.444549 0.957327 0.76580  0.0855652678571
 H1 0.944543 0.457341 0.26582  0.0855652678571
 H1 0.944547 0.45734 0.76580  0.0855652678571
 H1 0.944545 0.957328 0.26582  0.0855652678571
 H1 0.944548 0.957326 0.76580  0.0855652678571
 H1 0.498513 0.029541 0.32385  0.0855652678571
 H1 0.498517 0.029539 0.82383  0.0855652678571
 H1 0.498515 0.529527 0.32385  0.0855652678571
 H1 0.498518 0.529526 0.8238  0.0855652678571
 H1 0.998513 0.029539 0.32385  0.0855652678571
 H1 0.998516 0.029538 0.82384  0.0855652678571
 H1 0.998515 0.529525 0.32385  0.0855652678571
 H1 0.998518 0.529524 0.82384  0.0855652678571
 H1 0.408646 0.116407 0.38030  0.0855652678571
 H1 0.408649 0.116405 0.8802  0.0855652678571
 H1 0.408647 0.616394 0.38030  0.0855652678571
 H1 0.408651 0.616392 0.88028  0.0855652678571
 H1 0.908641 0.11641 0.380  0.0855652678571
 H1 0.908644 0.116409 0.88028  0.0855652678571
 H1 0.908642 0.616398 0.38029  0.0855652678571
 H1 0.908646 0.616396 0.88028  0.0855652678571
 H1 0.403055 0.046676 0.43730  0.0855652678571
 H1 0.403059 0.046675 0.93729  0.0855652678571
 H1 0.403057 0.546664 0.43730  0.0855652678571
 H1 0.403061 0.546662 0.93729  0.0855652678571
 H1 0.903052 0.046681 0.43730  0.0855652678571
 H1 0.903056 0.046679 0.93729  0.0855652678571
 H1 0.903055 0.546669 0.43730  0.0855652678571
 H1 0.903058 0.546667 0.93729  0.0855652678571
 H1 0.321627 0.04311 0.26587  0.0855652678571
 H1 0.32163 0.043109 0.76586  0.0855652678571
 H1 0.321629 0.543097 0.26587  0.0855652678571
 H1 0.321632 0.543096 0.76586  0.0855652678571
 H1 0.821626 0.043112 0.26587  0.0855652678571
 H1 0.82163 0.04311 0.76585  0.0855652678571
 H1 0.821628 0.543098 0.26587  0.0855652678571
 H1 0.821631 0.543097 0.76585  0.0855652678571
 H1 0.325739 0.470564 0.32349  0.0855652678571
 H1 0.325742 0.470563 0.82347  0.0855652678571
 H1 0.32574 0.970551 0.32349  0.0855652678571
 H1 0.325744 0.970549 0.82347  0.0855652678571
 H1 0.825734 0.470567 0.32349  0.0855652678571
 H1 0.825738 0.470566 0.82347  0.0855652678571
 H1 0.825736 0.970554 0.32349  0.0855652678571
 H1 0.825739 0.970552 0.82347  0.0855652678571
 C1 0.401022 0.105343 0.12873  0.393762142857
 C1 0.401026 0.105343 0.62872  0.393762142857
 C1 0.401023 0.60533 0.12873  0.393762142857
 C1 0.401028 0.60533 0.62872  0.393762142857
 C1 0.901011 0.105345 0.12873  0.393762142857
 C1 0.901015 0.105345 0.62871  0.393762142857
 C1 0.901012 0.605332 0.12873  0.393762142857
 C1 0.901017 0.605332 0.62871  0.393762142857
 C2 0.485836 0.072669 0.1184  -0.164686607143
 C2 0.48584 0.072668 0.61845  -0.164686607143
 C2 0.485838 0.572656 0.1184  -0.164686607143
 C2 0.485842 0.572655 0.61845  -0.164686607143
 C2 0.985825 0.072669 0.11846  -0.164686607143
 C2 0.985829 0.072668 0.61845  -0.164686607143
 C2 0.985827 0.572656 0.11846  -0.164686607143
 C2 0.985831 0.572655 0.61845  -0.164686607143
 C2 0.042979 0.015532 0.18014  -0.164686607143
 C2 0.042983 0.015531 0.68012  -0.164686607143
 C2 0.042981 0.515519 0.18014  -0.164686607143
 C2 0.042984 0.515518 0.68012  -0.164686607143
 C2 0.542977 0.015532 0.18014  -0.164686607143
 C2 0.542981 0.015531 0.68012  -0.164686607143
 C2 0.542979 0.515519 0.18014  -0.164686607143
 C2 0.542982 0.515518 0.68012  -0.164686607143
 C1 0.227016 0.394749 0.12859  0.393762142857
 C1 0.22702 0.394748 0.62858  0.393762142857
 C1 0.227018 0.894736 0.12859  0.393762142857
 C1 0.227022 0.894736 0.62858  0.393762142857
 C1 0.727012 0.394752 0.12859  0.393762142857
 C1 0.727016 0.394751 0.62858  0.393762142857
 C1 0.727014 0.894739 0.12859  0.393762142857
 C1 0.727018 0.894738 0.62858  0.393762142857
 C2 0.131868 0.427503 0.11829  -0.164686607143
 C2 0.131872 0.427501 0.6182  -0.164686607143
 C2 0.13187 0.92749 0.11829  -0.164686607143
 C2 0.131873 0.927488 0.6182  -0.164686607143
 C2 0.631865 0.427506 0.11829  -0.164686607143
 C2 0.631868 0.427504 0.61827  -0.164686607143
 C2 0.631866 0.927493 0.11829  -0.164686607143
 C2 0.63187 0.927492 0.61827  -0.164686607143
 C2 0.13678 0.484261 0.18019  -0.164686607143
 C2 0.136784 0.48426 0.68017  -0.164686607143
 C2 0.136782 0.984248 0.18019  -0.164686607143
 C2 0.136785 0.984246 0.68017  -0.164686607143
 C2 0.636778 0.484263 0.18018  -0.164686607143
 C2 0.636781 0.484261 0.68017  -0.164686607143
 C2 0.636779 0.98425 0.18018  -0.164686607143
 C2 0.636783 0.984249 0.68017  -0.164686607143
 C1 0.099061 0.394609 0.37126  0.393762142857
 C1 0.099065 0.394608 0.87125  0.393762142857
 C1 0.099063 0.894596 0.37126  0.393762142857
 C1 0.099067 0.894596 0.87125  0.393762142857
 C1 0.59905 0.394611 0.37126  0.393762142857
 C1 0.599054 0.39461 0.87125  0.393762142857
 C1 0.599052 0.894598 0.37126  0.393762142857
 C1 0.599056 0.894598 0.87125  0.393762142857
 C2 0.014245 0.427286 0.38153  -0.164686607143
 C2 0.014249 0.427286 0.88151  -0.164686607143
 C2 0.014247 0.927274 0.38153  -0.164686607143
 C2 0.014251 0.927273 0.88151  -0.164686607143
 C2 0.514235 0.427287 0.3815  -0.164686607143
 C2 0.514238 0.427286 0.88151  -0.164686607143
 C2 0.514237 0.927274 0.3815  -0.164686607143
 C2 0.51424 0.927273 0.88151  -0.164686607143
 C2 0.457099 0.484427 0.3198  -0.164686607143
 C2 0.457102 0.484426 0.81984  -0.164686607143
 C2 0.4571 0.984414 0.31985  -0.164686607143
 C2 0.457104 0.984413 0.81984  -0.164686607143
 C2 0.957097 0.484427 0.31986  -0.164686607143
 C2 0.9571 0.484426 0.81984  -0.164686607143
 C2 0.957098 0.984414 0.3198  -0.164686607143
 C2 0.957102 0.984412 0.81984  -0.164686607143
 C1 0.273061 0.105203 0.37140  0.393762142857
 C1 0.273065 0.105202 0.87139  0.393762142857
 C1 0.273063 0.60519 0.37140  0.393762142857
 C1 0.273067 0.605189 0.87139  0.393762142857
 C1 0.773057 0.105206 0.37140  0.393762142857
 C1 0.773061 0.105204 0.87138  0.393762142857
 C1 0.773059 0.605192 0.37140  0.393762142857
 C1 0.773062 0.605191 0.87138  0.393762142857
 C2 0.368209 0.072451 0.3817  -0.164686607143
 C2 0.368212 0.072449 0.88169  -0.164686607143
 C2 0.36821 0.572438 0.3817  -0.164686607143
 C2 0.368214 0.572437 0.88169  -0.164686607143
 C2 0.868205 0.072454 0.38170  -0.164686607143
 C2 0.868208 0.072453 0.88169  -0.164686607143
 C2 0.868207 0.572442 0.38170  -0.164686607143
 C2 0.86821 0.57244 0.88169  -0.164686607143
 C2 0.363297 0.015697 0.31981  -0.164686607143
 C2 0.363301 0.015695 0.81979  -0.164686607143
 C2 0.363299 0.515684 0.31981  -0.164686607143
 C2 0.363302 0.515682 0.81979  -0.164686607143
 C2 0.863295 0.015699 0.31980  -0.164686607143
 C2 0.863298 0.015697 0.81979  -0.164686607143
 C2 0.863296 0.515686 0.31980  -0.164686607143
 C2 0.8633 0.515684 0.81979  -0.164686607143
 N1 0.309768 0.164613 0.17436  0.0158496428571
 N1 0.309774 0.164613 0.67435  0.0158496428571
 N1 0.309769 0.6646 0.17436  0.0158496428571
 N1 0.309775 0.6646 0.67435  0.0158496428571
 N1 0.809757 0.164616 0.17436  0.0158496428571
 N1 0.809762 0.164617 0.67435  0.0158496428571
 N1 0.809758 0.664604 0.17436  0.0158496428571
 N1 0.809764 0.664604 0.67435  0.0158496428571
 N2 0.259748 0.120395 0.12292  -0.121672857143
 N2 0.259752 0.120396 0.62291  -0.121672857143
 N2 0.259749 0.620382 0.12292  -0.121672857143
 N2 0.259754 0.620383 0.62291  -0.121672857143
 N2 0.759736 0.1204 0.12292  -0.121672857143
 N2 0.759741 0.1204 0.62290  -0.121672857143
 N2 0.759738 0.620387 0.12292  -0.121672857143
 N2 0.759742 0.620388 0.62290  -0.121672857143
 N3 0.316037 0.082717 0.09342  -0.333801607143
 N3 0.316041 0.082718 0.59341  -0.333801607143
 N3 0.316038 0.582704 0.09342  -0.333801607143
 N3 0.316043 0.582705 0.59341  -0.333801607143
 N3 0.816025 0.082721 0.09342  -0.333801607143
 N3 0.816029 0.082722 0.59340  -0.333801607143
 N3 0.816026 0.582708 0.0934  -0.333801607143
 N3 0.816031 0.582709 0.59340  -0.333801607143
 N3 0.398416 0.156698 0.17946  -0.333801607143
 N3 0.398422 0.156698 0.6794  -0.333801607143
 N3 0.398418 0.656685 0.17946  -0.333801607143
 N3 0.398424 0.656685 0.6794  -0.333801607143
 N3 0.898406 0.156701 0.1794  -0.333801607143
 N3 0.898412 0.156699 0.67944  -0.333801607143
 N3 0.898408 0.656687 0.17946  -0.333801607143
 N3 0.898413 0.656687 0.67944  -0.333801607143
 N1 0.364196 0.335326 0.17438  0.0158496428571
 N1 0.3642 0.335326 0.67436  0.0158496428571
 N1 0.364198 0.835313 0.17438  0.0158496428571
 N1 0.364202 0.835313 0.67436  0.0158496428571
 N1 0.864191 0.335328 0.1743  0.0158496428571
 N1 0.864195 0.335327 0.67436  0.0158496428571
 N1 0.864193 0.835314 0.17437  0.0158496428571
 N1 0.864197 0.835314 0.67436  0.0158496428571
 N2 0.362484 0.379535 0.12290  -0.121672857143
 N2 0.362488 0.379535 0.62288  -0.121672857143
 N2 0.362486 0.879522 0.12290  -0.121672857143
 N2 0.36249 0.879522 0.62288  -0.121672857143
 N2 0.86248 0.379535 0.12289  -0.121672857143
 N2 0.862485 0.379536 0.62288  -0.121672857143
 N2 0.862482 0.879522 0.122  -0.121672857143
 N2 0.862486 0.879523 0.62288  -0.121672857143
 N3 0.276532 0.417322 0.09331  -0.333801607143
 N3 0.276536 0.417322 0.59329  -0.333801607143
 N3 0.276534 0.917309 0.09331  -0.333801607143
 N3 0.276538 0.917309 0.59329  -0.333801607143
 N3 0.776529 0.417323 0.09330  -0.333801607143
 N3 0.776533 0.417323 0.59329  -0.333801607143
 N3 0.776531 0.91731 0.09330  -0.333801607143
 N3 0.776535 0.91731 0.59329  -0.333801607143
 N3 0.28065 0.343365 0.17941  -0.333801607143
 N3 0.280653 0.343363 0.67940  -0.333801607143
 N3 0.280652 0.843352 0.1794  -0.333801607143
 N3 0.280655 0.84335 0.67940  -0.333801607143
 N3 0.780645 0.343367 0.17941  -0.333801607143
 N3 0.780648 0.343365 0.67940  -0.333801607143
 N3 0.780647 0.843355 0.17941  -0.333801607143
 N3 0.78065 0.843353 0.67940  -0.333801607143
 N1 0.190313 0.335338 0.32563  0.0158496428571
 N1 0.190319 0.335337 0.82562  0.0158496428571
 N1 0.190315 0.835324 0.32563  0.0158496428571
 N1 0.19032 0.835325 0.82562  0.0158496428571
 N1 0.690303 0.335341 0.32563  0.0158496428571
 N1 0.690308 0.335341 0.8256  0.0158496428571
 N1 0.690305 0.835327 0.32563  0.0158496428571
 N1 0.690309 0.835328 0.82561  0.0158496428571
 N2 0.240334 0.379556 0.37707  -0.121672857143
 N2 0.240339 0.379557 0.87706  -0.121672857143
 N2 0.240336 0.879543 0.37707  -0.121672857143
 N2 0.240341 0.879543 0.87706  -0.121672857143
 N2 0.740322 0.379561 0.37707  -0.121672857143
 N2 0.740327 0.379562 0.87705  -0.121672857143
 N2 0.740324 0.879548 0.37707  -0.121672857143
 N2 0.740329 0.879548 0.87705  -0.121672857143
 N3 0.184046 0.417235 0.40657  -0.333801607143
 N3 0.18405 0.417235 0.90656  -0.333801607143
 N3 0.184048 0.917221 0.40657  -0.333801607143
 N3 0.184052 0.917222 0.90656  -0.333801607143
 N3 0.684034 0.417238 0.40657  -0.333801607143
 N3 0.684038 0.417239 0.90656  -0.333801607143
 N3 0.684036 0.917225 0.40657  -0.333801607143
 N3 0.68404 0.917226 0.9065  -0.333801607143
 N3 0.101665 0.343252 0.32054  -0.333801607143
 N3 0.10167 0.343253 0.82052  -0.333801607143
 N3 0.101667 0.843241 0.3205  -0.333801607143
 N3 0.101672 0.84324 0.82052  -0.333801607143
 N3 0.601655 0.343255 0.32053  -0.333801607143
 N3 0.60166 0.343255 0.82052  -0.333801607143
 N3 0.601656 0.843243 0.32053  -0.333801607143
 N3 0.601661 0.843242 0.82052  -0.333801607143
 N1 0.13588 0.164625 0.32562  0.0158496428571
 N1 0.135885 0.164625 0.82561  0.0158496428571
 N1 0.135882 0.664613 0.32562  0.0158496428571
 N1 0.135886 0.664613 0.82561  0.0158496428571
 N1 0.635875 0.164627 0.32562  0.0158496428571
 N1 0.63588 0.164627 0.8256  0.0158496428571
 N1 0.635877 0.664614 0.32562  0.0158496428571
 N1 0.635881 0.664613 0.8256  0.0158496428571
 N2 0.137595 0.120418 0.37710  -0.121672857143
 N2 0.1376 0.120419 0.87709  -0.121672857143
 N2 0.137597 0.620405 0.37710  -0.121672857143
 N2 0.137601 0.620406 0.87709  -0.121672857143
 N2 0.637591 0.120419 0.37710  -0.121672857143
 N2 0.637596 0.120419 0.87709  -0.121672857143
 N2 0.637593 0.620405 0.37710  -0.121672857143
 N2 0.637598 0.620406 0.87709  -0.121672857143
 N3 0.223547 0.082632 0.40669  -0.333801607143
 N3 0.223551 0.082632 0.90668  -0.333801607143
 N3 0.223549 0.582619 0.40669  -0.333801607143
 N3 0.223553 0.582619 0.90668  -0.333801607143
 N3 0.723544 0.082633 0.40669  -0.333801607143
 N3 0.723548 0.082633 0.9066  -0.333801607143
 N3 0.723546 0.58262 0.40669  -0.333801607143
 N3 0.72355 0.582619 0.9066  -0.333801607143
 N3 0.219426 0.156587 0.32058  -0.333801607143
 N3 0.21943 0.156586 0.82057  -0.333801607143
 N3 0.219427 0.656574 0.32058  -0.333801607143
 N3 0.219432 0.656574 0.82057  -0.333801607143
 N3 0.71942 0.15659 0.32058  -0.333801607143
 N3 0.719424 0.156588 0.82056  -0.333801607143
 N3 0.719422 0.656577 0.32058  -0.333801607143
 N3 0.719426 0.656576 0.8205  -0.333801607143
 Cl1 0.077388 0.250071 0.15529  -0.492217857143
 Cl1 0.077392 0.25007 0.6552  -0.492217857143
 Cl1 0.077389 0.750058 0.15529  -0.492217857143
 Cl1 0.077394 0.750057 0.65527  -0.492217857143
 Cl1 0.577377 0.250075 0.15529  -0.492217857143
 Cl1 0.577382 0.250074 0.65527  -0.492217857143
 Cl1 0.577379 0.750062 0.15529  -0.492217857143
 Cl1 0.577384 0.750062 0.65527  -0.492217857143
 Cl1 0.422692 0.249879 0.34471  -0.492217857143
 Cl1 0.422697 0.249879 0.84469  -0.492217857143
 Cl1 0.422695 0.749866 0.34471  -0.492217857143
 Cl1 0.422699 0.749866 0.84469  -0.492217857143
 Cl1 0.922682 0.249883 0.34470  -0.492217857143
 Cl1 0.922686 0.249883 0.84469  -0.492217857143
 Cl1 0.922684 0.74987 0.34470  -0.492217857143
 Cl1 0.922688 0.74987 0.84469  -0.492217857143
