#======================================================================

# CRYSTAL DATA

#----------------------------------------------------------------------

data_VESTA_phase_1


_pd_phase_name                         MOF
_cell_length_a                         15.84100
_cell_length_b                         16.16400
_cell_length_c                         22.83800
_cell_angle_alpha                      90.00900
_cell_angle_beta                       89.99300
_cell_angle_gamma                      89.94000
_symmetry_space_group_name_H-M         "P 1"
_symmetry_Int_Tables_number            1

loop_
_symmetry_equiv_pos_as_xyz
   "x, y, z"

loop_
   _atom_site_label
   _atom_site_fract_x
   _atom_site_fract_y
   _atom_site_fract_z
 _atom_site_charge
 Zn1 0.689696 0.559158 0.25980  0.922682066327
 Zn1 0.833124 0.445434 0.25261  0.922682066327
 Zn1 0.189923 0.440904 0.74046  0.922682066327
 Zn1 0.333302 0.554653 0.74754  0.922682066327
 Zn1 0.689938 0.440915 0.75948  0.922682066327
 Zn1 0.833343 0.554631 0.7524  0.922682066327
 Zn1 0.189798 0.559069 0.24038  0.922682066327
 Zn1 0.333368 0.445406 0.2474  0.922682066327
 H1 0.770908 0.716726 0.11857  0.105856297096
 H1 0.834658 0.8059 0.04318  0.105856297096
 H1 0.054564 0.647764 0.04092  0.105856297096
 H1 0.98953 0.560038 0.11708  0.105856297096
 H1 0.935287 0.652434 0.93470  0.105856297096
 H1 0.003407 0.563476 0.86070  0.105856297096
 H1 0.2279 0.711736 0.87037  0.105856297096
 H1 0.160451 0.802619 0.94317  0.105856297096
 H1 0.764535 0.285503 0.39073  0.105856297096
 H1 0.70383 0.186819 0.46137  0.105856297096
 H1 0.473571 0.330106 0.46349  0.105856297096
 H1 0.534296 0.425188 0.39033  0.105856297096
 H1 0.596901 0.326857 0.57263  0.105856297096
 H1 0.521627 0.41856 0.64109  0.105856297096
 H1 0.296009 0.274422 0.61874  0.105856297096
 H1 0.371768 0.178437 0.55376  0.105856297096
 H1 0.730894 0.730168 0.27063  0.105856297096
 H1 0.661606 0.870361 0.2730  0.105856297096
 H1 0.421346 0.744755 0.2637  0.105856297096
 H1 0.499739 0.61106 0.26048  0.105856297096
 H1 0.423251 0.899756 0.26407  0.105856297096
 H1 0.593651 0.10347 0.28068  0.105856297096
 H1 0.594316 0.257963 0.28647  0.105856297096
 H1 0.518928 0.392347 0.2751  0.105856297096
 H1 0.295252 0.274654 0.23101  0.105856297096
 H1 0.362154 0.133967 0.24038  0.105856297096
 H1 0.271055 0.285637 0.88269  0.105856297096
 H1 0.334203 0.195867 0.95799  0.105856297096
 H1 0.555234 0.352053 0.9602  0.105856297096
 H1 0.490924 0.440213 0.88398  0.105856297096
 H1 0.435037 0.347063 0.06634  0.105856297096
 H1 0.503223 0.436282 0.14008  0.105856297096
 H1 0.72786 0.287745 0.13048  0.105856297096
 H1 0.660356 0.196618 0.05783  0.105856297096
 H1 0.264496 0.713897 0.60921  0.105856297096
 H1 0.203909 0.812642 0.53848  0.105856297096
 H1 0.973527 0.670026 0.53653  0.105856297096
 H1 0.034129 0.574902 0.60976  0.105856297096
 H1 0.096992 0.67316 0.427  0.105856297096
 H1 0.021488 0.581178 0.3590  0.105856297096
 H1 0.795526 0.725002 0.38225  0.105856297096
 H1 0.871512 0.821345 0.44667  0.105856297096
 H1 0.231511 0.269357 0.73259  0.105856297096
 H1 0.16228 0.129288 0.72995  0.105856297096
 H1 0.921823 0.255535 0.73450  0.105856297096
 H1 9.7e-05 0.389063 0.73832  0.105856297096
 H1 0.92359 0.100605 0.73497  0.105856297096
 H1 0.093737 0.896209 0.72015  0.105856297096
 H1 0.094407 0.741838 0.71428  0.105856297096
 H1 0.019004 0.607579 0.72531  0.105856297096
 H1 0.794769 0.725629 0.76819  0.105856297096
 H1 0.861647 0.86621 0.7590  0.105856297096
 H1 0.771103 0.285668 0.61724  0.105856297096
 H1 0.834276 0.195865 0.54195  0.105856297096
 H1 0.055281 0.352069 0.53971  0.105856297096
 H1 0.990961 0.440255 0.61595  0.105856297096
 H1 0.935184 0.346889 0.43356  0.105856297096
 H1 0.003372 0.435959 0.35975  0.105856297096
 H1 0.228031 0.28748 0.36945  0.105856297096
 H1 0.16048 0.196453 0.44214  0.105856297096
 H1 0.764493 0.713864 0.89078  0.105856297096
 H1 0.703896 0.812627 0.96152  0.105856297096
 H1 0.473483 0.670035 0.96347  0.105856297096
 H1 0.534111 0.574893 0.8902  0.105856297096
 H1 0.596979 0.673186 0.07285  0.105856297096
 H1 0.521664 0.581444 0.1411  0.105856297096
 H1 0.295768 0.72552 0.11836  0.105856297096
 H1 0.371557 0.821528 0.05357  0.105856297096
 H1 0.731488 0.269365 0.76689  0.105856297096
 H1 0.662242 0.129307 0.76956  0.105856297096
 H1 0.421774 0.2556 0.76563  0.105856297096
 H1 0.500076 0.389119 0.76174  0.105856297096
 H1 0.423513 0.100665 0.76512  0.105856297096
 H1 0.593704 0.89626 0.77966  0.105856297096
 H1 0.594393 0.741891 0.7855  0.105856297096
 H1 0.518968 0.607628 0.7745  0.105856297096
 H1 0.294554 0.725667 0.73215  0.105856297096
 H1 0.361443 0.866254 0.74124  0.105856297096
 H1 0.271069 0.71498 0.38201  0.105856297096
 H1 0.334506 0.804882 0.45715  0.105856297096
 H1 0.555492 0.648175 0.45923  0.105856297096
 H1 0.490902 0.559914 0.3831  0.105856297096
 H1 0.43542 0.652641 0.56545  0.105856297096
 H1 0.503551 0.563697 0.63943  0.105856297096
 H1 0.728076 0.711909 0.62970  0.105856297096
 H1 0.660621 0.802785 0.55691  0.105856297096
 H1 0.264458 0.285599 0.10926  0.105856297096
 H1 0.203743 0.186846 0.03867  0.105856297096
 H1 0.973607 0.33029 0.03641  0.105856297096
 H1 0.034362 0.425495 0.1094  0.105856297096
 H1 0.096858 0.326822 0.9272  0.105856297096
 H1 0.021581 0.418461 0.85882  0.105856297096
 H1 0.795973 0.274354 0.88125  0.105856297096
 H1 0.871731 0.178439 0.94625  0.105856297096
 H1 0.231049 0.730287 0.23052  0.105856297096
 H1 0.161716 0.870456 0.22797  0.105856297096
 H1 0.921468 0.74475 0.23656  0.105856297096
 H1 0.999855 0.611125 0.24012  0.105856297096
 H1 0.923288 0.899771 0.23602  0.105856297096
 H1 0.093635 0.103539 0.21944  0.105856297096
 H1 0.094284 0.258041 0.21352  0.105856297096
 H1 0.018916 0.392426 0.22479  0.105856297096
 H1 0.795013 0.274772 0.26843  0.105856297096
 H1 0.861936 0.134092 0.25919  0.105856297096
 C1 0.836273 0.579914 0.16946  0.673218316327
 C2 0.875359 0.632253 0.1223  -0.0119249336735
 C3 0.832974 0.701957 0.1010  -0.104742433673
 C3 0.869445 0.751988 0.05822  -0.104742433673
 C2 0.949492 0.733142 0.03570  -0.0119249336735
 C3 0.992127 0.663378 0.0575  -0.104742433673
 C3 0.955548 0.613474 0.1001  -0.104742433673
 C4 0.995909 0.787826 0.99057  -0.300632933673
 C5 0.056673 0.844375 0.02702  0.696804566327
 C5 0.935768 0.845282 0.95466  0.696804566327
 C2 0.042779 0.733789 0.94524  -0.0119249336735
 C3 0.999511 0.666238 0.92081  -0.104742433673
 C3 0.037911 0.615442 0.87937  -0.104742433673
 C2 0.120844 0.631334 0.86127  -0.0119249336735
 C3 0.16358 0.69943 0.8847  -0.104742433673
 C3 0.125101 0.750338 0.9261  -0.104742433673
 C1 0.164428 0.576968 0.81743  0.673218316327
 C1 0.692038 0.419057 0.34137  0.673218316327
 C2 0.654005 0.361851 0.38604  -0.0119249336735
 C3 0.700487 0.294232 0.406  -0.104742433673
 C3 0.665884 0.239061 0.4470  -0.104742433673
 C2 0.584038 0.251488 0.46850  -0.0119249336735
 C3 0.537328 0.319234 0.4474  -0.104742433673
 C3 0.571542 0.373452 0.40660  -0.104742433673
 C4 0.540707 0.193369 0.51302  -0.300632933673
 C5 0.483035 0.134333 0.47647  0.696804566327
 C5 0.604612 0.139574 0.54921  0.696804566327
 C2 0.490292 0.245827 0.55750  -0.0119249336735
 C3 0.531301 0.313729 0.58332  -0.104742433673
 C3 0.488699 0.366372 0.62139  -0.104742433673
 C2 0.403157 0.352998 0.63383  -0.0119249336735
 C3 0.36255 0.284537 0.60915  -0.104742433673
 C3 0.405716 0.230838 0.57194  -0.104742433673
 C1 0.355047 0.410646 0.67306  0.673218316327
 C6 0.662617 0.737234 0.26914  0.163767482993
 C3 0.624301 0.813977 0.27057  -0.104742433673
 C2 0.535686 0.818962 0.268  -0.0119249336735
 C3 0.490098 0.744732 0.26531  -0.104742433673
 C6 0.533341 0.669685 0.26389  0.163767482993
 C6 0.492485 0.898675 0.26689  0.163767482993
 C6 0.525956 0.104705 0.27024  0.163767482993
 C2 0.483824 0.184552 0.26432  -0.0119249336735
 C3 0.527987 0.258533 0.2738  -0.104742433673
 C6 0.486279 0.333912 0.26775  0.163767482993
 C6 0.361269 0.267179 0.24310  0.163767482993
 C3 0.39823 0.1901 0.24837  -0.104742433673
 C1 0.33783 0.421396 0.8312  0.673218316327
 C2 0.376243 0.369031 0.87867  -0.0119249336735
 C3 0.33327 0.29984 0.90017  -0.104742433673
 C3 0.369402 0.249454 0.94295  -0.104742433673
 C2 0.44965 0.267474 0.96539  -0.0119249336735
 C3 0.492688 0.336946 0.94362  -0.104742433673
 C3 0.456506 0.387134 0.90097  -0.104742433673
 C4 0.496256 0.212118 0.01015  -0.300632933673
 C5 0.557095 0.156428 0.9731  0.696804566327
 C5 0.436163 0.15385 0.04551  0.696804566327
 C2 0.542699 0.265669 0.05581  -0.0119249336735
 C3 0.49929 0.333259 0.08021  -0.104742433673
 C3 0.537718 0.384186 0.12148  -0.104742433673
 C2 0.620731 0.368303 0.1394  -0.0119249336735
 C3 0.6635 0.300015 0.1161  -0.104742433673
 C3 0.62502 0.24899 0.07491  -0.104742433673
 C1 0.664414 0.422912 0.18296  0.673218316327
 C1 0.191911 0.58073 0.65871  0.673218316327
 C2 0.15389 0.637914 0.61398  -0.0119249336735
 C3 0.200441 0.705353 0.59326  -0.104742433673
 C3 0.165908 0.760547 0.55290  -0.104742433673
 C2 0.084045 0.748336 0.53144  -0.0119249336735
 C3 0.037277 0.680743 0.55254  -0.104742433673
 C3 0.071424 0.626502 0.59345  -0.104742433673
 C4 0.04072 0.806571 0.48694  -0.300632933673
 C5 0.98304 0.865651 0.52353  0.696804566327
 C5 0.104587 0.860359 0.45078  0.696804566327
 C2 0.990267 0.754132 0.44253  -0.0119249336735
 C3 0.031266 0.686196 0.41665  -0.104742433673
 C3 0.988535 0.633375 0.37884  -0.104742433673
 C2 0.902836 0.646581 0.36674  -0.0119249336735
 C3 0.862202 0.715038 0.39152  -0.104742433673
 C3 0.905512 0.768947 0.42843  -0.104742433673
 C1 0.854608 0.588977 0.32761  0.673218316327
 C6 0.163194 0.262466 0.73302  0.163767482993
 C3 0.124906 0.185775 0.7314  -0.104742433673
 C2 0.036228 0.18099 0.73232  -0.0119249336735
 C3 0.990613 0.255369 0.73408  -0.104742433673
 C6 0.033802 0.33034 0.73577  0.163767482993
 C6 0.992903 0.101401 0.73321  0.163767482993
 C6 0.025918 0.895213 0.73022  0.163767482993
 C2 0.983655 0.815458 0.73582  -0.0119249336735
 C3 0.027935 0.741387 0.72653  -0.104742433673
 C6 0.98624 0.666066 0.73249  0.163767482993
 C6 0.860916 0.732991 0.75644  0.163767482993
 C3 0.897874 0.810029 0.75129  -0.104742433673
 C1 0.83787 0.421424 0.66871  0.673218316327
 C2 0.876291 0.36906 0.62127  -0.0119249336735
 C3 0.833321 0.299866 0.59976  -0.104742433673
 C3 0.86947 0.24946 0.55698  -0.104742433673
 C2 0.94973 0.267466 0.53455  -0.0119249336735
 C3 0.99275 0.336961 0.55630  -0.104742433673
 C3 0.956551 0.38717 0.59896  -0.104742433673
 C4 0.996394 0.212065 0.48984  -0.300632933673
 C5 0.057136 0.156404 0.52682  0.696804566327
 C5 0.936339 0.153793 0.45448  0.696804566327
 C2 0.042845 0.265533 0.44415  -0.0119249336735
 C3 0.999441 0.333065 0.41970  -0.104742433673
 C3 0.037852 0.383896 0.37839  -0.104742433673
 C2 0.12089 0.368023 0.3604  -0.0119249336735
 C3 0.163657 0.299766 0.38378  -0.104742433673
 C3 0.12516 0.248808 0.42504  -0.104742433673
 C1 0.164529 0.422757 0.31700  0.673218316327
 C1 0.691917 0.580699 0.84127  0.673218316327
 C2 0.653876 0.637898 0.88600  -0.0119249336735
 C3 0.700431 0.705332 0.90673  -0.104742433673
 C3 0.665892 0.760536 0.94710  -0.104742433673
 C2 0.584024 0.74833 0.96855  -0.0119249336735
 C3 0.537252 0.680741 0.94745  -0.104742433673
 C3 0.571403 0.626492 0.90653  -0.104742433673
 C4 0.540697 0.80658 0.01306  -0.300632933673
 C5 0.483028 0.865658 0.97646  0.696804566327
 C5 0.604585 0.860373 0.04921  0.696804566327
 C2 0.490259 0.754216 0.05754  -0.0119249336735
 C3 0.531305 0.686307 0.08341  -0.104742433673
 C3 0.488666 0.633628 0.12138  -0.104742433673
 C2 0.40304 0.646964 0.13367  -0.0119249336735
 C3 0.362381 0.71542 0.10892  -0.104742433673
 C3 0.405578 0.769153 0.07182  -0.104742433673
 C1 0.354961 0.589336 0.17288  0.673218316327
 C6 0.663168 0.262487 0.76661  0.163767482993
 C3 0.624872 0.185802 0.76820  -0.104742433673
 C2 0.53619 0.181034 0.7675  -0.0119249336735
 C3 0.490566 0.255422 0.76590  -0.104742433673
 C6 0.533778 0.330388 0.76418  0.163767482993
 C6 0.492832 0.101452 0.7667  0.163767482993
 C6 0.525847 0.895262 0.76972  0.163767482993
 C2 0.483543 0.815506 0.76421  -0.0119249336735
 C3 0.527877 0.741438 0.77340  -0.104742433673
 C6 0.486158 0.666114 0.76748  0.163767482993
 C6 0.360741 0.733034 0.74378  0.163767482993
 C3 0.397704 0.810073 0.74891  -0.104742433673
 C1 0.337609 0.578687 0.33095  0.673218316327
 C2 0.376212 0.631315 0.37807  -0.0119249336735
 C3 0.333325 0.700721 0.39945  -0.104742433673
 C3 0.369598 0.75115 0.442  -0.104742433673
 C2 0.44985 0.732889 0.4644  -0.0119249336735
 C3 0.492907 0.663347 0.44270  -0.104742433673
 C3 0.456588 0.613124 0.40018  -0.104742433673
 C4 0.49606 0.787839 0.5094  -0.300632933673
 C5 0.556791 0.844365 0.47299  0.696804566327
 C5 0.435795 0.845294 0.54532  0.696804566327
 C2 0.542948 0.733962 0.55489  -0.0119249336735
 C3 0.499642 0.666443 0.57934  -0.104742433673
 C3 0.538049 0.615661 0.62076  -0.104742433673
 C2 0.620996 0.631532 0.63882  -0.0119249336735
 C3 0.663744 0.69962 0.61535  -0.104742433673
 C3 0.625269 0.75052 0.57400  -0.104742433673
 C1 0.66455 0.577105 0.68261  0.673218316327
 C1 0.192032 0.419252 0.15856  0.673218316327
 C2 0.153985 0.362036 0.1138  -0.0119249336735
 C3 0.200426 0.294343 0.09328  -0.104742433673
 C3 0.165817 0.239132 0.05299  -0.104742433673
 C2 0.083993 0.251566 0.03147  -0.0119249336735
 C3 0.037326 0.319393 0.05246  -0.104742433673
 C3 0.071558 0.373667 0.09328  -0.104742433673
 C4 0.040681 0.193402 0.98695  -0.300632933673
 C5 0.983035 0.134343 0.0235  0.696804566327
 C5 0.104604 0.139591 0.95076  0.696804566327
 C2 0.990265 0.245813 0.94246  -0.0119249336735
 C3 0.031254 0.313684 0.91661  -0.104742433673
 C3 0.98866 0.366301 0.87854  -0.104742433673
 C2 0.903115 0.352923 0.86612  -0.0119249336735
 C3 0.862511 0.284488 0.89083  -0.104742433673
 C3 0.905685 0.230818 0.92805  -0.104742433673
 C1 0.85501 0.410567 0.82690  0.673218316327
 C6 0.162761 0.73733 0.23186  0.163767482993
 C3 0.124417 0.814059 0.23032  -0.104742433673
 C2 0.035782 0.81902 0.23237  -0.0119249336735
 C3 0.990232 0.744769 0.23519  -0.104742433673
 C6 0.033484 0.669739 0.23675  0.163767482993
 C6 0.99254 0.898723 0.23340  0.163767482993
 C6 0.025886 0.104776 0.22973  0.163767482993
 C2 0.98372 0.184637 0.23548  -0.0119249336735
 C3 0.027903 0.258616 0.22601  -0.104742433673
 C6 0.986207 0.334006 0.23208  0.163767482993
 C6 0.861081 0.267299 0.25647  0.163767482993
 C3 0.898056 0.190213 0.25126  -0.104742433673
 N1 0.618268 0.665765 0.26559  -0.296562933673
 N2 0.535486 0.966933 0.26778  -0.238047933673
 N2 0.484114 0.036521 0.26293  -0.238047933673
 N1 0.404124 0.338381 0.25272  -0.296562933673
 N1 0.118774 0.334085 0.73537  -0.296562933673
 N2 0.035758 0.032963 0.73311  -0.238047933673
 N2 0.984175 0.963556 0.73744  -0.238047933673
 N1 0.903929 0.661708 0.74713  -0.296562933673
 N1 0.618752 0.334118 0.76443  -0.296562933673
 N2 0.535693 0.033007 0.76677  -0.238047933673
 N2 0.48407 0.963602 0.76256  -0.238047933673
 N1 0.403804 0.661753 0.75297  -0.296562933673
 N1 0.11843 0.66583 0.23523  -0.296562933673
 N2 0.035483 0.967008 0.23246  -0.238047933673
 N2 0.98406 0.036595 0.23705  -0.238047933673
 N1 0.903992 0.338509 0.24697  -0.296562933673
 O1 0.772389 0.609801 0.19588  -0.588662933673
 O1 0.871145 0.510297 0.17996  -0.588662933673
 O1 0.232795 0.60457 0.79561  -0.588662933673
 O1 0.129989 0.507849 0.80487  -0.588662933673
 O1 0.768536 0.405676 0.32739  -0.588662933673
 O1 0.644245 0.475291 0.32026  -0.588662933673
 O1 0.396352 0.469359 0.69703  -0.588662933673
 O1 0.276841 0.395835 0.67977  -0.588662933673
 O1 0.27334 0.392321 0.80518  -0.588662933673
 O1 0.373959 0.490129 0.81999  -0.588662933673
 O1 0.732668 0.395162 0.20488  -0.588662933673
 O1 0.63019 0.49235 0.19516  -0.588662933673
 O1 0.268287 0.594238 0.6728  -0.588662933673
 O1 0.144276 0.524368 0.67971  -0.588662933673
 O1 0.896201 0.530931 0.3028  -0.588662933673
 O1 0.776151 0.603212 0.3216  -0.588662933673
 O1 0.773387 0.392338 0.69477  -0.588662933673
 O1 0.873988 0.490159 0.67997  -0.588662933673
 O1 0.233083 0.395367 0.29526  -0.588662933673
 O1 0.129976 0.491967 0.30469  -0.588662933673
 O1 0.76831 0.594183 0.82717  -0.588662933673
 O1 0.644281 0.524349 0.82026  -0.588662933673
 O1 0.396357 0.530634 0.19689  -0.588662933673
 O1 0.276727 0.604159 0.17961  -0.588662933673
 O1 0.27288 0.607609 0.30503  -0.588662933673
 O1 0.37383 0.50988 0.31984  -0.588662933673
 O1 0.732931 0.604648 0.70443  -0.588662933673
 O1 0.63007 0.507993 0.69512  -0.588662933673
 O1 0.268467 0.405783 0.17261  -0.588662933673
 O1 0.144295 0.475605 0.17962  -0.588662933673
 O1 0.896342 0.469251 0.80291  -0.588662933673
 O1 0.7768 0.395781 0.82019  -0.588662933673
 F1 0.015437 0.881294 0.07230  -0.205536267007
 F1 0.121063 0.798909 0.0502  -0.205536267007
 F1 0.092515 0.906079 0.99500  -0.205536267007
 F1 0.9776 0.882208 0.90994  -0.205536267007
 F1 0.90001 0.906274 0.98742  -0.205536267007
 F1 0.870879 0.801804 0.93017  -0.205536267007
 F1 0.418698 0.176869 0.45043  -0.205536267007
 F1 0.526274 0.097021 0.43249  -0.205536267007
 F1 0.448144 0.073358 0.50965  -0.205536267007
 F1 0.644176 0.080005 0.51722  -0.205536267007
 F1 0.566416 0.100854 0.59475  -0.205536267007
 F1 0.666679 0.187845 0.57254  -0.205536267007
 F1 0.51534 0.121296 0.92753  -0.205536267007
 F1 0.6218 0.201389 0.95001  -0.205536267007
 F1 0.592474 0.093902 0.00475  -0.205536267007
 F1 0.477476 0.115126 0.08985  -0.205536267007
 F1 0.399948 0.093724 0.01236  -0.205536267007
 F1 0.371605 0.197879 0.07009  -0.205536267007
 F1 0.918737 0.823173 0.54957  -0.205536267007
 F1 0.02624 0.902938 0.56748  -0.205536267007
 F1 0.948117 0.926646 0.49033  -0.205536267007
 F1 0.144105 0.919901 0.48276  -0.205536267007
 F1 0.066373 0.899128 0.40524  -0.205536267007
 F1 0.166702 0.812064 0.4274  -0.205536267007
 F1 0.01534 0.121294 0.5724  -0.205536267007
 F1 0.121828 0.201375 0.54997  -0.205536267007
 F1 0.092496 0.093877 0.49523  -0.205536267007
 F1 0.977572 0.115009 0.4101  -0.205536267007
 F1 0.899967 0.093742 0.48762  -0.205536267007
 F1 0.871995 0.197954 0.42986  -0.205536267007
 F1 0.418726 0.823172 0.95042  -0.205536267007
 F1 0.526249 0.902928 0.93249  -0.205536267007
 F1 0.448099 0.92666 0.00967  -0.205536267007
 F1 0.644108 0.919899 0.0172  -0.205536267007
 F1 0.566377 0.899148 0.09476  -0.205536267007
 F1 0.666695 0.812077 0.07255  -0.205536267007
 F1 0.515501 0.881185 0.42770  -0.205536267007
 F1 0.621263 0.798948 0.44976  -0.205536267007
 F1 0.592542 0.906116 0.50497  -0.205536267007
 F1 0.477577 0.882252 0.59004  -0.205536267007
 F1 0.400012 0.906236 0.51254  -0.205536267007
 F1 0.370899 0.801801 0.56980  -0.205536267007
 F1 0.918695 0.176875 0.04957  -0.205536267007
 F1 0.02626 0.097029 0.06749  -0.205536267007
 F1 0.948158 0.073373 0.99032  -0.205536267007
 F1 0.144163 0.080027 0.98274  -0.205536267007
 F1 0.066414 0.100857 0.90522  -0.205536267007
 F1 0.166676 0.187851 0.92743  -0.205536267007
