#======================================================================

# CRYSTAL DATA

#----------------------------------------------------------------------

data_VESTA_phase_1


_pd_phase_name                         MOF
_cell_length_a                         22.52200
_cell_length_b                         16.30800
_cell_length_c                         14.51100
_cell_angle_alpha                      89.98900
_cell_angle_beta                       95.20800
_cell_angle_gamma                      89.97900
_symmetry_space_group_name_H-M         "P 1"
_symmetry_Int_Tables_number            1

loop_
_symmetry_equiv_pos_as_xyz
   "x, y, z"

loop_
   _atom_site_label
   _atom_site_fract_x
   _atom_site_fract_y
   _atom_site_fract_z
 _atom_site_charge
 Zn1 0.200102 0.683857 0.11363  0.904948431373
 Zn1 0.700093 0.683855 0.1136  0.904948431373
 Zn1 0.04981 0.183861 0.88637  0.904948431373
 Zn1 0.549806 0.183859 0.88637  0.904948431373
 Zn1 0.299885 0.316157 0.88630  0.904948431373
 Zn1 0.799876 0.316156 0.88632  0.904948431373
 Zn1 0.450173 0.816151 0.11358  0.904948431373
 Zn1 0.950169 0.816148 0.11357  0.904948431373
 H1 0.117231 0.602743 0.26406  0.101169460784
 H1 0.617216 0.602699 0.26405  0.101169460784
 H1 0.225985 0.812107 0.29173  0.101169460784
 H1 0.725959 0.812071 0.29178  0.101169460784
 H1 0.213772 0.840581 0.46630  0.101169460784
 H1 0.713739 0.840492 0.46638  0.101169460784
 H1 0.18014 0.761795 0.52752  0.101169460784
 H1 0.680073 0.761705 0.52756  0.101169460784
 H1 0.080678 0.844672 0.33508  0.101169460784
 H1 0.580649 0.844617 0.33511  0.101169460784
 H1 0.999237 0.939735 0.35135  0.101169460784
 H1 0.499225 0.939716 0.35136  0.101169460784
 H1 0.064273 0.980004 0.63737  0.101169460784
 H1 0.564255 0.979988 0.6373  0.101169460784
 H1 0.145153 0.884487 0.62024  0.101169460784
 H1 0.645116 0.884433 0.62027  0.101169460784
 H1 0.412476 0.419624 0.51001  0.101169460784
 H1 0.912489 0.419592 0.51001  0.101169460784
 H1 0.355767 0.396835 0.36200  0.101169460784
 H1 0.855777 0.396809 0.36200  0.101169460784
 H1 0.988182 0.527279 0.22300  0.101169460784
 H1 0.488193 0.527247 0.22  0.101169460784
 H1 0.044879 0.55275 0.3715  0.101169460784
 H1 0.544889 0.55272 0.37153  0.101169460784
 H1 0.407239 0.438055 0.1333  0.101169460784
 H1 0.907231 0.438062 0.1333  0.101169460784
 H1 0.346996 0.40183 0.19297  0.101169460784
 H1 0.846991 0.401837 0.19297  0.101169460784
 H1 0.252288 0.492075 0.15073  0.101169460784
 H1 0.752282 0.492078 0.15074  0.101169460784
 H1 0.339727 0.717352 0.12374  0.101169460784
 H1 0.839716 0.71736 0.12376  0.101169460784
 H1 0.159417 0.913766 0.98296  0.101169460784
 H1 0.65941 0.913791 0.98303  0.101169460784
 H1 0.132508 0.102651 0.73581  0.101169460784
 H1 0.63252 0.102662 0.7358  0.101169460784
 H1 0.02395 0.312328 0.70825  0.101169460784
 H1 0.523949 0.312324 0.70824  0.101169460784
 H1 0.03617 0.340827 0.53363  0.101169460784
 H1 0.536192 0.340848 0.53365  0.101169460784
 H1 0.069792 0.262004 0.47244  0.101169460784
 H1 0.569803 0.262022 0.47245  0.101169460784
 H1 0.169375 0.344522 0.66478  0.101169460784
 H1 0.669329 0.344637 0.66484  0.101169460784
 H1 0.250826 0.43949 0.64850  0.101169460784
 H1 0.75078 0.439611 0.64858  0.101169460784
 H1 0.185577 0.480304 0.36264  0.101169460784
 H1 0.685684 0.480167 0.36260  0.101169460784
 H1 0.104701 0.384869 0.37977  0.101169460784
 H1 0.604794 0.384755 0.3797  0.101169460784
 H1 0.337536 0.91967 0.48992  0.101169460784
 H1 0.83759 0.91964 0.4900  0.101169460784
 H1 0.394236 0.896858 0.63796  0.101169460784
 H1 0.894291 0.896837 0.63807  0.101169460784
 H1 0.261703 0.027233 0.77686  0.101169460784
 H1 0.761702 0.027079 0.77699  0.101169460784
 H1 0.205026 0.052729 0.62832  0.101169460784
 H1 0.705012 0.052547 0.6284  0.101169460784
 H1 0.342703 0.938116 0.86660  0.101169460784
 H1 0.842743 0.938054 0.86673  0.101169460784
 H1 0.402955 0.901796 0.80703  0.101169460784
 H1 0.902999 0.901749 0.80715  0.101169460784
 H1 0.49765 0.99193 0.84954  0.101169460784
 H1 0.997677 0.991924 0.84961  0.101169460784
 H1 0.410203 0.217357 0.87585  0.101169460784
 H1 0.91019 0.217325 0.87590  0.101169460784
 H1 0.090565 0.413703 0.01731  0.101169460784
 H1 0.590563 0.413703 0.01729  0.101169460784
 H1 0.382757 0.397322 0.73589  0.101169460784
 H1 0.882743 0.397277 0.73588  0.101169460784
 H1 0.274015 0.187949 0.70814  0.101169460784
 H1 0.773988 0.187915 0.70820  0.101169460784
 H1 0.286237 0.159535 0.53354  0.101169460784
 H1 0.786205 0.159445 0.53362  0.101169460784
 H1 0.319905 0.238325 0.47237  0.101169460784
 H1 0.819838 0.238234 0.47241  0.101169460784
 H1 0.419326 0.155409 0.66482  0.101169460784
 H1 0.919295 0.155349 0.66485  0.101169460784
 H1 0.50075 0.060311 0.64857  0.101169460784
 H1 0.0 0.060286 0.64858  0.101169460784
 H1 0.435725 0.020045 0.36254  0.101169460784
 H1 0.935711 0.020033 0.36255  0.101169460784
 H1 0.354863 0.115598 0.37965  0.101169460784
 H1 0.85483 0.115548 0.37968  0.101169460784
 H1 0.087495 0.580434 0.48994  0.101169460784
 H1 0.587505 0.580404 0.48993  0.101169460784
 H1 0.144208 0.603214 0.6379  0.101169460784
 H1 0.644215 0.603191 0.63794  0.101169460784
 H1 0.511781 0.472797 0.77695  0.101169460784
 H1 0.0 0.472772 0.77695  0.101169460784
 H1 0.455083 0.447332 0.6284  0.101169460784
 H1 0.955092 0.447308 0.62841  0.101169460784
 H1 0.092752 0.561969 0.86661  0.101169460784
 H1 0.592743 0.561975 0.86661  0.101169460784
 H1 0.152992 0.598192 0.80697  0.101169460784
 H1 0.652986 0.598197 0.80697  0.101169460784
 H1 0.247699 0.507941 0.84920  0.101169460784
 H1 0.747692 0.507943 0.84921  0.101169460784
 H1 0.160255 0.282666 0.87617  0.101169460784
 H1 0.660244 0.282673 0.87619  0.101169460784
 H1 0.340567 0.086227 0.0169  0.101169460784
 H1 0.84056 0.086252 0.01697  0.101169460784
 H1 0.367454 0.897362 0.26410  0.101169460784
 H1 0.867466 0.897374 0.26411  0.101169460784
 H1 0.476028 0.687704 0.29171  0.101169460784
 H1 0.976027 0.687702 0.29170  0.101169460784
 H1 0.463789 0.659197 0.46630  0.101169460784
 H1 0.96381 0.659218 0.46632  0.101169460784
 H1 0.430174 0.738023 0.527  0.101169460784
 H1 0.930184 0.738042 0.52750  0.101169460784
 H1 0.33065 0.655405 0.33511  0.101169460784
 H1 0.830604 0.65552 0.33517  0.101169460784
 H1 0.2492 0.560431 0.35137  0.101169460784
 H1 0.749153 0.560552 0.35144  0.101169460784
 H1 0.314299 0.519869 0.63734  0.101169460784
 H1 0.814406 0.519733 0.6373  0.101169460784
 H1 0.395189 0.615283 0.62021  0.101169460784
 H1 0.895281 0.615169 0.62017  0.101169460784
 H1 0.162382 0.080394 0.5098  0.101169460784
 H1 0.662435 0.080364 0.51000  0.101169460784
 H1 0.105679 0.103194 0.36185  0.101169460784
 H1 0.605734 0.103172 0.36196  0.101169460784
 H1 0.238268 0.972948 0.22293  0.101169460784
 H1 0.738267 0.972795 0.22306  0.101169460784
 H1 0.294958 0.947484 0.37148  0.101169460784
 H1 0.794945 0.947303 0.37160  0.101169460784
 H1 0.157224 0.061972 0.13319  0.101169460784
 H1 0.657264 0.061911 0.13332  0.101169460784
 H1 0.096969 0.098274 0.19277  0.101169460784
 H1 0.597011 0.098228 0.19289  0.101169460784
 H1 0.002293 0.008094 0.1503  0.101169460784
 H1 0.502319 0.008088 0.15038  0.101169460784
 H1 0.089785 0.782697 0.12403  0.101169460784
 H1 0.589773 0.782665 0.12408  0.101169460784
 H1 0.40941 0.586315 0.98264  0.101169460784
 H1 0.909409 0.586313 0.9826  0.101169460784
 C1 0.139461 0.656636 0.29397  0.232228431373
 C1 0.63944 0.656591 0.29398  0.232228431373
 C1 0.195549 0.763138 0.30604  0.232228431373
 C1 0.695524 0.763097 0.3060  0.232228431373
 C2 0.173273 0.803163 0.46773  -0.0747340686275
 C2 0.67323 0.803089 0.46778  -0.0747340686275
 C3 0.119634 0.857777 0.4760  -0.0132882352941
 C3 0.6196 0.857724 0.47604  -0.0132882352941
 C4 0.077447 0.874329 0.40170  -0.105082957516
 C4 0.57742 0.874284 0.40173  -0.105082957516
 C4 0.030902 0.929111 0.41137  -0.105082957516
 C4 0.530886 0.929086 0.41138  -0.105082957516
 C3 0.024476 0.970088 0.49531  -0.0132882352941
 C3 0.524466 0.970076 0.49532  -0.0132882352941
 C4 0.066759 0.951381 0.57006  -0.105082957516
 C4 0.566739 0.951356 0.5700  -0.105082957516
 C4 0.113118 0.896405 0.56070  -0.105082957516
 C4 0.613087 0.896361 0.56073  -0.105082957516
 C3 0.483274 0.490618 0.45467  -0.0132882352941
 C3 0.983273 0.490618 0.45467  -0.0132882352941
 C4 0.430033 0.444754 0.44856  -0.105082957516
 C4 0.930038 0.44474 0.44856  -0.105082957516
 C4 0.397598 0.430839 0.36364  -0.105082957516
 C4 0.897602 0.430827 0.36364  -0.105082957516
 C3 0.417229 0.460916 0.28140  -0.0132882352941
 C3 0.917224 0.460922 0.28140  -0.0132882352941
 C4 0.471398 0.503665 0.28592  -0.105082957516
 C4 0.971388 0.503685 0.28593  -0.105082957516
 C4 0.00344 0.518371 0.37088  -0.105082957516
 C4 0.503446 0.518351 0.37088  -0.105082957516
 C2 0.379827 0.451256 0.19043  -0.0747340686275
 C2 0.879821 0.451263 0.19044  -0.0747340686275
 C1 0.286785 0.538343 0.14868  0.232228431373
 C1 0.786778 0.538348 0.148  0.232228431373
 C1 0.332616 0.652533 0.13516  0.232228431373
 C1 0.832605 0.65254 0.1351  0.232228431373
 C5 0.248067 0.837816 0.08376  0.666408431373
 C5 0.748068 0.837856 0.08385  0.666408431373
 C3 0.251461 0.919296 0.03563  -0.0132882352941
 C3 0.751455 0.919324 0.035  -0.0132882352941
 C3 0.303377 0.968118 0.04448  -0.0132882352941
 C3 0.803372 0.968143 0.04453  -0.0132882352941
 C4 0.199267 0.951749 0.98985  -0.105082957516
 C4 0.699261 0.951772 0.98991  -0.105082957516
 C5 0.363114 0.93619 0.08425  0.666408431373
 C5 0.86311 0.936202 0.08428  0.666408431373
 C1 0.110331 0.15663 0.70593  0.232228431373
 C1 0.610343 0.156639 0.70594  0.232228431373
 C1 0.054347 0.263294 0.69392  0.232228431373
 C1 0.554352 0.263295 0.69392  0.232228431373
 C2 0.076662 0.30335 0.53223  -0.0747340686275
 C2 0.576679 0.303363 0.53224  -0.0747340686275
 C3 0.130313 0.357896 0.52394  -0.0132882352941
 C3 0.630336 0.357898 0.52395  -0.0132882352941
 C4 0.172559 0.374285 0.598  -0.105082957516
 C4 0.672547 0.374346 0.5982  -0.105082957516
 C4 0.219113 0.429011 0.58852  -0.105082957516
 C4 0.719103 0.42907 0.5885  -0.105082957516
 C3 0.225484 0.470121 0.50462  -0.0132882352941
 C3 0.725514 0.470113 0.50464  -0.0132882352941
 C4 0.183144 0.45157 0.42992  -0.105082957516
 C4 0.683213 0.451497 0.42990  -0.105082957516
 C4 0.136778 0.396647 0.43928  -0.105082957516
 C4 0.636841 0.396583 0.43927  -0.105082957516
 C3 0.266689 0.990663 0.54521  -0.0132882352941
 C3 0.766709 0.990559 0.54533  -0.0132882352941
 C4 0.319958 0.944798 0.55136  -0.105082957516
 C4 0.819997 0.944735 0.55147  -0.105082957516
 C4 0.352389 0.930869 0.63629  -0.105082957516
 C4 0.85243 0.930815 0.63641  -0.105082957516
 C3 0.33273 0.960932 0.71852  -0.0132882352941
 C3 0.832757 0.96085 0.71864  -0.0132882352941
 C4 0.278531 0.0 0.71396  -0.105082957516
 C4 0.77854 0.0 0.71408  -0.105082957516
 C4 0.246492 0.018368 0.62899  -0.105082957516
 C4 0.746496 0.018228 0.62911  -0.105082957516
 C2 0.370126 0.951263 0.80951  -0.0747340686275
 C2 0.870159 0.951205 0.80962  -0.0747340686275
 C1 0.463162 0.038256 0.85140  0.232228431373
 C1 0.96318 0.038238 0.85146  0.232228431373
 C1 0.417315 0.152517 0.86457  0.232228431373
 C1 0.917314 0.152485 0.86463  0.232228431373
 C5 0.501951 0.337642 0.91664  0.666408431373
 C5 0.0 0.337627 0.91667  0.666408431373
 C3 0.498529 0.419218 0.96454  -0.0132882352941
 C3 0.99853 0.419212 0.96455  -0.0132882352941
 C3 0.446607 0.468089 0.95549  -0.0132882352941
 C3 0.946607 0.468083 0.95549  -0.0132882352941
 C4 0.050715 0.451725 0.01025  -0.105082957516
 C4 0.550712 0.451724 0.01024  -0.105082957516
 C5 0.386885 0.436157 0.91572  0.666408431373
 C5 0.886884 0.436153 0.91572  0.666408431373
 C1 0.360533 0.34343 0.70596  0.232228431373
 C1 0.860512 0.343385 0.70596  0.232228431373
 C1 0.30445 0.236925 0.6938  0.232228431373
 C1 0.804424 0.236884 0.69389  0.232228431373
 C2 0.326746 0.196939 0.53215  -0.0747340686275
 C2 0.826704 0.196864 0.53220  -0.0747340686275
 C3 0.380376 0.142304 0.52389  -0.0132882352941
 C3 0.880344 0.14225 0.52392  -0.0132882352941
 C4 0.422555 0.125743 0.59820  -0.105082957516
 C4 0.922529 0.125695 0.59823  -0.105082957516
 C4 0.46909 0.070942 0.58855  -0.105082957516
 C4 0.969074 0.070914 0.58856  -0.105082957516
 C3 0.475511 0.029953 0.50461  -0.0132882352941
 C3 0.975502 0.029941 0.50462  -0.0132882352941
 C4 0.433239 0.048675 0.42985  -0.105082957516
 C4 0.933222 0.048652 0.42987  -0.105082957516
 C4 0.38689 0.103669 0.43920  -0.105082957516
 C4 0.886862 0.103627 0.4392  -0.105082957516
 C3 0.016704 0.509424 0.54527  -0.0132882352941
 C3 0.516702 0.509422 0.54527  -0.0132882352941
 C4 0.069943 0.555292 0.55139  -0.105082957516
 C4 0.569946 0.555279 0.55138  -0.105082957516
 C4 0.10238 0.569204 0.6363  -0.105082957516
 C4 0.602382 0.569192 0.63630  -0.105082957516
 C3 0.082755 0.539113 0.71855  -0.0132882352941
 C3 0.58275 0.539118 0.71855  -0.0132882352941
 C4 0.028587 0.496361 0.71402  -0.105082957516
 C4 0.528578 0.496377 0.71402  -0.105082957516
 C4 0.496529 0.481694 0.62907  -0.105082957516
 C4 0.996534 0.481677 0.62907  -0.105082957516
 C2 0.120161 0.548767 0.80951  -0.0747340686275
 C2 0.620154 0.548773 0.80951  -0.0747340686275
 C1 0.213201 0.461674 0.85125  0.232228431373
 C1 0.713193 0.461678 0.85126  0.232228431373
 C1 0.167368 0.347485 0.86476  0.232228431373
 C1 0.667358 0.347492 0.86477  0.232228431373
 C5 0.251911 0.162169 0.91609  0.666408431373
 C5 0.751911 0.162204 0.91618  0.666408431373
 C3 0.248524 0.080694 0.96423  -0.0132882352941
 C3 0.748517 0.08072 0.964  -0.0132882352941
 C3 0.196607 0.031875 0.955  -0.0132882352941
 C3 0.696602 0.031898 0.95545  -0.0132882352941
 C4 0.300718 0.048243 0.01002  -0.105082957516
 C4 0.800711 0.048268 0.01008  -0.105082957516
 C5 0.136867 0.063811 0.9156  0.666408431373
 C5 0.636863 0.063823 0.91568  0.666408431373
 C1 0.389632 0.843388 0.29399  0.232228431373
 C1 0.889644 0.843398 0.29400  0.232228431373
 C1 0.445626 0.736734 0.30602  0.232228431373
 C1 0.94563 0.736736 0.30602  0.232228431373
 C2 0.4233 0.696679 0.46771  -0.0747340686275
 C2 0.923317 0.696692 0.4677  -0.0747340686275
 C3 0.369645 0.642141 0.47599  -0.0132882352941
 C3 0.869668 0.642143 0.47600  -0.0132882352941
 C4 0.327433 0.625694 0.40171  -0.105082957516
 C4 0.827421 0.625755 0.40175  -0.105082957516
 C4 0.280877 0.57097 0.41138  -0.105082957516
 C4 0.780867 0.57103 0.41142  -0.105082957516
 C3 0.274467 0.529927 0.49530  -0.0132882352941
 C3 0.774497 0.529918 0.49532  -0.0132882352941
 C4 0.316769 0.54854 0.57004  -0.105082957516
 C4 0.816838 0.548468 0.57003  -0.105082957516
 C4 0.36314 0.603455 0.5606  -0.105082957516
 C4 0.863203 0.603391 0.56066  -0.105082957516
 C3 0.233262 0.009473 0.45459  -0.0132882352941
 C3 0.733282 0.009369 0.45471  -0.0132882352941
 C4 0.179974 0.055297 0.44845  -0.105082957516
 C4 0.680013 0.055235 0.44856  -0.105082957516
 C4 0.14754 0.069215 0.36351  -0.105082957516
 C4 0.647581 0.069161 0.36363  -0.105082957516
 C3 0.167212 0.039178 0.28128  -0.0132882352941
 C3 0.667239 0.039096 0.28140  -0.0132882352941
 C4 0.221429 0.996485 0.28584  -0.105082957516
 C4 0.721439 0.99636 0.28596  -0.105082957516
 C4 0.253474 0.981802 0.37081  -0.105082957516
 C4 0.753479 0.981664 0.3709  -0.105082957516
 C2 0.129809 0.04882 0.19030  -0.0747340686275
 C2 0.629842 0.048763 0.19042  -0.0747340686275
 C1 0.036791 0.961781 0.14846  0.232228431373
 C1 0.536809 0.961763 0.14853  0.232228431373
 C1 0.08266 0.847537 0.13530  0.232228431373
 C1 0.582659 0.847506 0.1353  0.232228431373
 C5 0.998018 0.662394 0.08326  0.666408431373
 C5 0.498021 0.662381 0.08329  0.666408431373
 C3 0.001445 0.580806 0.03538  -0.0132882352941
 C3 0.501444 0.580801 0.03540  -0.0132882352941
 C3 0.053368 0.531934 0.04445  -0.0132882352941
 C3 0.553366 0.531929 0.04445  -0.0132882352941
 C4 0.44926 0.548293 0.98970  -0.105082957516
 C4 0.94926 0.548292 0.9896  -0.105082957516
 C5 0.113091 0.563862 0.08422  0.666408431373
 C5 0.613089 0.563858 0.08422  0.666408431373
 N1 0.177637 0.703011 0.24694  -0.435221568627
 N1 0.67762 0.702978 0.24697  -0.435221568627
 N2 0.133033 0.68442 0.37825  -0.352186568627
 N2 0.633002 0.684362 0.37826  -0.352186568627
 N3 0.169247 0.75243 0.3847  0.152118431373
 N3 0.669213 0.752374 0.38482  0.152118431373
 N1 0.276978 0.617901 0.12898  -0.435221568627
 N1 0.776969 0.617905 0.12899  -0.435221568627
 N2 0.375793 0.599187 0.15787  -0.352186568627
 N2 0.875784 0.599196 0.15788  -0.352186568627
 N3 0.34593 0.526828 0.165  0.152118431373
 N3 0.845923 0.526835 0.16590  0.152118431373
 N1 0.072196 0.203077 0.75299  -0.435221568627
 N1 0.5722 0.203079 0.75299  -0.435221568627
 N2 0.116796 0.184461 0.62168  -0.352186568627
 N2 0.616814 0.184474 0.62169  -0.352186568627
 N3 0.080652 0.252583 0.61518  0.152118431373
 N3 0.580665 0.252592 0.6151  0.152118431373
 N1 0.472957 0.117823 0.87100  -0.435221568627
 N1 0.972962 0.117812 0.87104  -0.435221568627
 N2 0.374157 0.099213 0.84180  -0.352186568627
 N2 0.874164 0.099162 0.84188  -0.352186568627
 N3 0.404023 0.0 0.83400  0.152118431373
 N3 0.904042 0.0 0.83409  0.152118431373
 N1 0.322353 0.297041 0.7529  -0.435221568627
 N1 0.822336 0.297008 0.75299  -0.435221568627
 N2 0.366972 0.315663 0.62168  -0.352186568627
 N2 0.866942 0.315604 0.62169  -0.352186568627
 N3 0.33076 0.247651 0.61511  0.152118431373
 N3 0.830727 0.247594 0.6151  0.152118431373
 N1 0.223007 0.382115 0.87094  -0.435221568627
 N1 0.722997 0.382119 0.87096  -0.435221568627
 N2 0.124192 0.400834 0.84206  -0.352186568627
 N2 0.624183 0.400841 0.84206  -0.352186568627
 N3 0.154056 0.473192 0.83404  0.152118431373
 N3 0.654048 0.473198 0.83405  0.152118431373
 N1 0.427776 0.796945 0.24694  -0.435221568627
 N1 0.92778 0.796948 0.24694  -0.435221568627
 N2 0.383163 0.81556 0.37824  -0.352186568627
 N2 0.883182 0.815574 0.37825  -0.352186568627
 N3 0.419314 0.747445 0.38476  0.152118431373
 N3 0.919327 0.747453 0.38476  0.152118431373
 N1 0.027011 0.882207 0.1288  -0.435221568627
 N1 0.527017 0.882196 0.12893  -0.435221568627
 N2 0.125809 0.900862 0.15804  -0.352186568627
 N2 0.625815 0.900813 0.15812  -0.352186568627
 N3 0.095929 0.973256 0.1658  0.152118431373
 N3 0.595948 0.973215 0.16593  0.152118431373
 O1 0.212816 0.783958 0.04192  -0.620361568627
 O1 0.712837 0.783977 0.04201  -0.620361568627
 O2 0.276282 0.827508 0.16143  -0.600156568627
 O2 0.776269 0.827591 0.16153  -0.600156568627
 O1 0.379617 0.868112 0.04728  -0.620361568627
 O1 0.879596 0.868116 0.04731  -0.620361568627
 O2 0.393684 0.97607 0.14500  -0.600156568627
 O2 0.893695 0.97608 0.14501  -0.600156568627
 O1 0.037242 0.283798 0.95859  -0.620361568627
 O1 0.537228 0.283804 0.95855  -0.620361568627
 O2 0.473763 0.327232 0.83897  -0.600156568627
 O2 0.973763 0.327196 0.83900  -0.600156568627
 O1 0.370368 0.368103 0.95272  -0.620361568627
 O1 0.870363 0.368106 0.95273  -0.620361568627
 O2 0.35632 0.47607 0.85495  -0.600156568627
 O2 0.856321 0.476064 0.85494  -0.600156568627
 O1 0.287145 0.216039 0.95794  -0.620361568627
 O1 0.787161 0.216058 0.95802  -0.620361568627
 O2 0.223706 0.172455 0.8384  -0.600156568627
 O2 0.723694 0.172526 0.83851  -0.600156568627
 O1 0.120378 0.131892 0.95264  -0.620361568627
 O1 0.620358 0.131896 0.95267  -0.620361568627
 O2 0.106282 0.0 0.85493  -0.600156568627
 O2 0.606293 0.0 0.85494  -0.600156568627
 O1 0.462742 0.716214 0.04137  -0.620361568627
 O1 0.962729 0.71622 0.04134  -0.620361568627
 O2 0.026213 0.672832 0.16092  -0.600156568627
 O2 0.526214 0.672805 0.16095  -0.600156568627
 O1 0.129614 0.631909 0.04721  -0.620361568627
 O1 0.629608 0.631911 0.04722  -0.620361568627
 O2 0.143652 0.523948 0.14500  -0.600156568627
 O2 0.643654 0.523941 0.14499  -0.600156568627
