#======================================================================

# CRYSTAL DATA

#----------------------------------------------------------------------

data_VESTA_phase_1


_pd_phase_name                         MOF
_cell_length_a                         17.20000
_cell_length_b                         18.53400
_cell_length_c                         18.53200
_cell_angle_alpha                      77.73800
_cell_angle_beta                       62.55500
_cell_angle_gamma                      62.55500
_symmetry_space_group_name_H-M         "P 1"
_symmetry_Int_Tables_number            1

loop_
_symmetry_equiv_pos_as_xyz
   "x, y, z"

loop_
   _atom_site_label
   _atom_site_fract_x
   _atom_site_fract_y
   _atom_site_fract_z
 _atom_site_charge
 K1 0.438009 0.12448 0.12450  0.934933214286
 K1 0.438016 0.124478 0.62451  0.934933214286
 K1 0.438012 0.624476 0.12450  0.934933214286
 K1 0.438023 0.624472 0.62450  0.934933214286
 K1 0.937998 0.12448 0.12450  0.934933214286
 K1 0.938005 0.124479 0.62451  0.934933214286
 K1 0.938001 0.624477 0.12450  0.934933214286
 K1 0.938013 0.624471 0.62450  0.934933214286
 K1 0.061994 0.375523 0.37554  0.934933214286
 K1 0.062001 0.375523 0.87555  0.934933214286
 K1 0.061997 0.87552 0.37554  0.934933214286
 K1 0.062009 0.875513 0.87555  0.934933214286
 K1 0.561984 0.375523 0.37554  0.934933214286
 K1 0.56199 0.375522 0.87555  0.934933214286
 K1 0.561987 0.87552 0.37554  0.934933214286
 K1 0.561997 0.875515 0.87555  0.934933214286
 Y1 0.31275 0.374741 0.37477  1.90620821429
 Y1 0.31276 0.374737 0.87477  1.90620821429
 Y1 0.312748 0.874744 0.37477  1.90620821429
 Y1 0.312763 0.874732 0.8747  1.90620821429
 Y1 0.812738 0.374745 0.37477  1.90620821429
 Y1 0.81275 0.374736 0.8747  1.90620821429
 Y1 0.812738 0.874744 0.37477  1.90620821429
 Y1 0.812755 0.874731 0.87477  1.90620821429
 Y1 0.187252 0.125265 0.12527  1.90620821429
 Y1 0.187264 0.125255 0.62528  1.90620821429
 Y1 0.187252 0.625263 0.12528  1.90620821429
 Y1 0.187268 0.625252 0.62528  1.90620821429
 Y1 0.687244 0.125263 0.12527  1.90620821429
 Y1 0.687254 0.125257 0.62528  1.90620821429
 Y1 0.687242 0.625264 0.12528  1.90620821429
 Y1 0.687257 0.625253 0.62528  1.90620821429
 C1 0.292192 0.239146 0.0112  0.550360714286
 C1 0.292199 0.239138 0.51124  0.550360714286
 C1 0.292196 0.73914 0.0112  0.550360714286
 C1 0.292203 0.739136 0.51124  0.550360714286
 C1 0.792183 0.239145 0.01124  0.550360714286
 C1 0.792189 0.23914 0.51124  0.550360714286
 C1 0.792188 0.739139 0.01123  0.550360714286
 C1 0.792192 0.739137 0.51124  0.550360714286
 C1 0.29218 0.011229 0.23917  0.550360714286
 C1 0.292195 0.011218 0.73918  0.550360714286
 C1 0.292193 0.511218 0.23916  0.550360714286
 C1 0.292206 0.511212 0.73917  0.550360714286
 C1 0.792172 0.011226 0.23917  0.550360714286
 C1 0.792187 0.011218 0.73918  0.550360714286
 C1 0.792182 0.511221 0.23916  0.550360714286
 C1 0.792196 0.511213 0.73917  0.550360714286
 C1 0.303265 0.489105 0.48914  0.550360714286
 C1 0.30327 0.489103 0.98915  0.550360714286
 C1 0.303267 0.989103 0.48915  0.550360714286
 C1 0.303276 0.989094 0.98916  0.550360714286
 C1 0.803254 0.489108 0.4891  0.550360714286
 C1 0.80326 0.489102 0.98915  0.550360714286
 C1 0.803257 0.989104 0.48915  0.550360714286
 C1 0.803267 0.989092 0.98916  0.550360714286
 C1 0.031167 0.261208 0.26123  0.550360714286
 C1 0.031181 0.261199 0.76124  0.550360714286
 C1 0.031167 0.761204 0.26123  0.550360714286
 C1 0.031185 0.761193 0.76123  0.550360714286
 C1 0.531158 0.261205 0.26123  0.550360714286
 C1 0.53117 0.2612 0.76124  0.550360714286
 C1 0.531156 0.761205 0.26123  0.550360714286
 C1 0.531172 0.761195 0.76124  0.550360714286
 C1 0.207814 0.260859 0.48881  0.550360714286
 C1 0.20782 0.260856 0.98881  0.550360714286
 C1 0.207818 0.760856 0.48880  0.550360714286
 C1 0.207823 0.760852 0.98881  0.550360714286
 C1 0.707803 0.260861 0.48881  0.550360714286
 C1 0.707811 0.260855 0.98881  0.550360714286
 C1 0.707807 0.760857 0.4888  0.550360714286
 C1 0.707815 0.760851 0.98881  0.550360714286
 C1 0.207808 0.488784 0.26088  0.550360714286
 C1 0.207822 0.488777 0.76088  0.550360714286
 C1 0.207818 0.988779 0.26087  0.550360714286
 C1 0.207832 0.988769 0.76088  0.550360714286
 C1 0.707798 0.488786 0.26088  0.550360714286
 C1 0.707812 0.488777 0.76089  0.550360714286
 C1 0.707809 0.988777 0.26087  0.550360714286
 C1 0.707823 0.98877 0.76088  0.550360714286
 C1 0.196737 0.010906 0.01089  0.550360714286
 C1 0.196743 0.010898 0.51090  0.550360714286
 C1 0.196739 0.5109 0.01090  0.550360714286
 C1 0.19675 0.510889 0.51090  0.550360714286
 C1 0.696728 0.010904 0.01089  0.550360714286
 C1 0.696733 0.0109 0.51090  0.550360714286
 C1 0.69673 0.5109 0.01090  0.550360714286
 C1 0.696739 0.510891 0.5109  0.550360714286
 C1 0.468835 0.238802 0.23881  0.550360714286
 C1 0.468846 0.238798 0.73882  0.550360714286
 C1 0.468833 0.738803 0.23881  0.550360714286
 C1 0.468849 0.738791 0.73882  0.550360714286
 C1 0.968822 0.238805 0.23881  0.550360714286
 C1 0.968835 0.238797 0.73882  0.550360714286
 C1 0.968821 0.738802 0.23881  0.550360714286
 C1 0.968839 0.738791 0.73882  0.550360714286
 O1 0.345859 0.276307 0.47387  -0.620268035714
 O1 0.345867 0.276301 0.97388  -0.620268035714
 O1 0.345862 0.776306 0.47387  -0.620268035714
 O1 0.345872 0.776294 0.97388  -0.620268035714
 O1 0.845849 0.276309 0.47387  -0.620268035714
 O1 0.845859 0.276299 0.97388  -0.620268035714
 O1 0.845852 0.776306 0.47387  -0.620268035714
 O1 0.845865 0.776292 0.97387  -0.620268035714
 O2 0.300647 0.185359 0.06570  -0.640378035714
 O2 0.300656 0.185352 0.56571  -0.640378035714
 O2 0.300648 0.685356 0.06570  -0.640378035714
 O2 0.300662 0.685347 0.56570  -0.640378035714
 O2 0.800638 0.185357 0.06570  -0.640378035714
 O2 0.800646 0.185353 0.56571  -0.640378035714
 O2 0.80064 0.685356 0.06570  -0.640378035714
 O2 0.80065 0.685349 0.5657  -0.640378035714
 O1 0.345857 0.473843 0.27633  -0.620268035714
 O1 0.345869 0.473838 0.77634  -0.620268035714
 O1 0.345855 0.973848 0.27634  -0.620268035714
 O1 0.345869 0.973838 0.77634  -0.620268035714
 O1 0.845845 0.473846 0.27633  -0.620268035714
 O1 0.845859 0.473838 0.77634  -0.620268035714
 O1 0.845846 0.973847 0.27634  -0.620268035714
 O1 0.845861 0.973837 0.77634  -0.620268035714
 O2 0.300631 0.065696 0.18539  -0.640378035714
 O2 0.300644 0.065686 0.68540  -0.640378035714
 O2 0.300636 0.565691 0.18539  -0.640378035714
 O2 0.300653 0.565682 0.68539  -0.640378035714
 O2 0.800622 0.065694 0.18539  -0.640378035714
 O2 0.800634 0.065688 0.68540  -0.640378035714
 O2 0.800625 0.565693 0.18539  -0.640378035714
 O2 0.800641 0.565683 0.68539  -0.640378035714
 O1 0.319331 0.026599 0.02662  -0.620268035714
 O1 0.31934 0.02659 0.52662  -0.620268035714
 O1 0.319333 0.526601 0.02662  -0.620268035714
 O1 0.319346 0.526588 0.52662  -0.620268035714
 O1 0.819323 0.026597 0.02662  -0.620268035714
 O1 0.81933 0.026592 0.52662  -0.620268035714
 O1 0.819323 0.526601 0.02662  -0.620268035714
 O1 0.819335 0.52659 0.52662  -0.620268035714
 O2 0.366155 0.435015 0.43505  -0.640378035714
 O2 0.366161 0.435011 0.93506  -0.640378035714
 O2 0.366155 0.935014 0.43506  -0.640378035714
 O2 0.366166 0.935004 0.93506  -0.640378035714
 O2 0.866143 0.435017 0.43505  -0.640378035714
 O2 0.866151 0.43501 0.93506  -0.640378035714
 O2 0.866145 0.935015 0.43506  -0.640378035714
 O2 0.866158 0.935003 0.93506  -0.640378035714
 O1 0.121796 0.224158 0.22417  -0.620268035714
 O1 0.12181 0.224149 0.72418  -0.620268035714
 O1 0.121796 0.724154 0.22418  -0.620268035714
 O1 0.121814 0.724143 0.72418  -0.620268035714
 O1 0.621787 0.224155 0.22417  -0.620268035714
 O1 0.621799 0.22415 0.72418  -0.620268035714
 O1 0.621785 0.724155 0.22418  -0.620268035714
 O1 0.621801 0.724145 0.72418  -0.620268035714
 O2 0.485756 0.315375 0.31539  -0.640378035714
 O2 0.485767 0.315371 0.81540  -0.640378035714
 O2 0.485754 0.815377 0.31539  -0.640378035714
 O2 0.485769 0.815365 0.81540  -0.640378035714
 O2 0.985744 0.315378 0.31539  -0.640378035714
 O2 0.985758 0.31537 0.81540  -0.640378035714
 O2 0.985744 0.815376 0.315  -0.640378035714
 O2 0.985761 0.815364 0.81540  -0.640378035714
 O1 0.154145 0.223701 0.02617  -0.620268035714
 O1 0.154155 0.223689 0.52618  -0.620268035714
 O1 0.154149 0.723695 0.02617  -0.620268035714
 O1 0.154161 0.723685 0.52617  -0.620268035714
 O1 0.654137 0.223699 0.02617  -0.620268035714
 O1 0.654146 0.22369 0.52618  -0.620268035714
 O1 0.654141 0.723695 0.02617  -0.620268035714
 O1 0.65415 0.723685 0.52617  -0.620268035714
 O2 0.199356 0.314647 0.43434  -0.640378035714
 O2 0.199363 0.314645 0.93435  -0.640378035714
 O2 0.199356 0.814648 0.43434  -0.640378035714
 O2 0.199367 0.814639 0.93435  -0.640378035714
 O2 0.699344 0.31465 0.4343  -0.640378035714
 O2 0.699354 0.314644 0.93435  -0.640378035714
 O2 0.699345 0.814649 0.43435  -0.640378035714
 O2 0.699359 0.814639 0.93435  -0.640378035714
 O1 0.154147 0.026156 0.22370  -0.620268035714
 O1 0.154159 0.026147 0.72371  -0.620268035714
 O1 0.154147 0.526156 0.22371  -0.620268035714
 O1 0.154162 0.526148 0.72371  -0.620268035714
 O1 0.654138 0.026154 0.22370  -0.620268035714
 O1 0.654151 0.026148 0.72371  -0.620268035714
 O1 0.654137 0.526157 0.22371  -0.620268035714
 O1 0.654151 0.526148 0.7237  -0.620268035714
 O2 0.199363 0.434314 0.31466  -0.640378035714
 O2 0.199374 0.434309 0.81467  -0.640378035714
 O2 0.199366 0.934315 0.31466  -0.640378035714
 O2 0.199381 0.934303 0.81466  -0.640378035714
 O2 0.699351 0.434317 0.31466  -0.640378035714
 O2 0.699364 0.434309 0.81467  -0.640378035714
 O2 0.699356 0.934314 0.31466  -0.640378035714
 O2 0.699373 0.934303 0.81466  -0.640378035714
 O1 0.18067 0.473405 0.4734  -0.620268035714
 O1 0.180677 0.4734 0.97343  -0.620268035714
 O1 0.18067 0.97341 0.47343  -0.620268035714
 O1 0.180682 0.973399 0.97343  -0.620268035714
 O1 0.680659 0.473408 0.47343  -0.620268035714
 O1 0.680668 0.473399 0.97343  -0.620268035714
 O1 0.68066 0.973411 0.47343  -0.620268035714
 O1 0.680674 0.973398 0.97343  -0.620268035714
 O2 0.133846 0.064997 0.06498  -0.640378035714
 O2 0.133854 0.064988 0.56499  -0.640378035714
 O2 0.133848 0.564992 0.06499  -0.640378035714
 O2 0.133861 0.564982 0.56499  -0.640378035714
 O2 0.633838 0.064995 0.06498  -0.640378035714
 O2 0.633844 0.06499 0.56499  -0.640378035714
 O2 0.633839 0.564993 0.06499  -0.640378035714
 O2 0.633849 0.564983 0.56500  -0.640378035714
 O1 0.378206 0.275852 0.27586  -0.620268035714
 O1 0.378217 0.275848 0.77587  -0.620268035714
 O1 0.378204 0.775853 0.2758  -0.620268035714
 O1 0.378219 0.775841 0.77587  -0.620268035714
 O1 0.878192 0.275855 0.27586  -0.620268035714
 O1 0.878206 0.275847 0.77587  -0.620268035714
 O1 0.878192 0.775853 0.27587  -0.620268035714
 O1 0.87821 0.775841 0.77587  -0.620268035714
 O2 0.014247 0.184634 0.18465  -0.640378035714
 O2 0.01426 0.184625 0.68466  -0.640378035714
 O2 0.014246 0.684631 0.18465  -0.640378035714
 O2 0.014264 0.68462 0.68465  -0.640378035714
 O2 0.514239 0.184631 0.1846  -0.640378035714
 O2 0.51425 0.184626 0.6846  -0.640378035714
 O2 0.514237 0.684632 0.18465  -0.640378035714
 O2 0.514252 0.684621 0.68466  -0.640378035714
