#======================================================================

# CRYSTAL DATA

#----------------------------------------------------------------------

data_VESTA_phase_1


_pd_phase_name                         MOF
_cell_length_a                         14.59400
_cell_length_b                         16.87700
_cell_length_c                         17.45900
_cell_angle_alpha                      90.00200
_cell_angle_beta                       95.55000
_cell_angle_gamma                      90.02800
_symmetry_space_group_name_H-M         "P 1"
_symmetry_Int_Tables_number            1

loop_
_symmetry_equiv_pos_as_xyz
   "x, y, z"

loop_
   _atom_site_label
   _atom_site_fract_x
   _atom_site_fract_y
   _atom_site_fract_z
 _atom_site_charge
 Zn1 0.47277 0.798349 0.31263  0.8788115625
 Zn1 0.972758 0.798349 0.31263  0.8788115625
 Zn1 0.277188 0.298403 0.18727  0.8788115625
 Zn1 0.777175 0.298403 0.18727  0.8788115625
 Zn1 0.027224 0.201618 0.6873  0.8788115625
 Zn1 0.527212 0.201618 0.6873  0.8788115625
 Zn1 0.222807 0.701566 0.81274  0.8788115625
 Zn1 0.722795 0.701565 0.81274  0.8788115625
 H1 0.298314 0.931356 0.42296  0.0963181414474
 H1 0.798301 0.931359 0.42296  0.0963181414474
 H1 0.466461 0.933844 0.44324  0.0963181414474
 H1 0.966442 0.933852 0.44324  0.0963181414474
 H1 0.405107 0.023345 0.46046  0.0963181414474
 H1 0.905091 0.023353 0.46046  0.0963181414474
 H1 0.115383 0.672734 0.42405  0.0963181414474
 H1 0.61537 0.672735 0.42405  0.0963181414474
 H1 0.128004 0.662517 0.32549  0.0963181414474
 H1 0.627991 0.662517 0.32549  0.0963181414474
 H1 0.10759 0.792064 0.53877  0.0963181414474
 H1 0.60758 0.792063 0.53877  0.0963181414474
 H1 0.365711 0.861929 0.65995  0.0963181414474
 H1 0.865697 0.861936 0.65995  0.0963181414474
 H1 0.223166 0.48545 0.18817  0.0963181414474
 H1 0.723155 0.485452 0.18817  0.0963181414474
 H1 0.202534 0.525778 0.35521  0.0963181414474
 H1 0.702521 0.525778 0.35521  0.0963181414474
 H1 0.175516 0.536677 0.45128  0.0963181414474
 H1 0.675503 0.536678 0.45128  0.0963181414474
 H1 0.446995 0.731616 0.48344  0.0963181414474
 H1 0.946983 0.731616 0.48344  0.0963181414474
 H1 0.285255 0.656485 0.5160  0.0963181414474
 H1 0.785242 0.656485 0.5160  0.0963181414474
 H1 0.267585 0.717537 0.27954  0.0963181414474
 H1 0.767572 0.717537 0.27954  0.0963181414474
 H1 0.005096 0.552765 0.3989  0.0963181414474
 H1 0.505083 0.552765 0.3989  0.0963181414474
 H1 0.053564 0.457909 0.3874  0.0963181414474
 H1 0.553552 0.45791 0.3874  0.0963181414474
 H1 0.080389 0.491539 0.25075  0.0963181414474
 H1 0.580378 0.491539 0.25075  0.0963181414474
 H1 0.029673 0.586144 0.26167  0.0963181414474
 H1 0.529661 0.586144 0.26167  0.0963181414474
 H1 0.469632 0.366542 0.26396  0.0963181414474
 H1 0.969619 0.366542 0.26396  0.0963181414474
 H1 0.359437 0.597544 0.2313  0.0963181414474
 H1 0.859425 0.597544 0.2313  0.0963181414474
 H1 0.451602 0.431331 0.07711  0.0963181414474
 H1 0.951584 0.431322 0.07711  0.0963181414474
 H1 0.283313 0.433815 0.05676  0.0963181414474
 H1 0.783299 0.433818 0.05676  0.0963181414474
 H1 0.344875 0.523272 0.0396  0.0963181414474
 H1 0.844865 0.523272 0.03965  0.0963181414474
 H1 0.134615 0.172705 0.07697  0.0963181414474
 H1 0.634606 0.172706 0.0769  0.0963181414474
 H1 0.121319 0.162126 0.17537  0.0963181414474
 H1 0.621309 0.162127 0.17537  0.0963181414474
 H1 0.142076 0.291905 0.96129  0.0963181414474
 H1 0.642072 0.291915 0.96129  0.0963181414474
 H1 0.384067 0.36192 0.8401  0.0963181414474
 H1 0.884055 0.361925 0.84013  0.0963181414474
 H1 0.026738 0.985506 0.31201  0.0963181414474
 H1 0.526727 0.985506 0.31201  0.0963181414474
 H1 0.047299 0.0254 0.14519  0.0963181414474
 H1 0.547287 0.025402 0.14519  0.0963181414474
 H1 0.074047 0.036692 0.04908  0.0963181414474
 H1 0.574035 0.036694 0.04908  0.0963181414474
 H1 0.303043 0.231177 0.01634  0.0963181414474
 H1 0.803028 0.231174 0.01634  0.0963181414474
 H1 0.464768 0.155733 0.98438  0.0963181414474
 H1 0.964752 0.155728 0.98438  0.0963181414474
 H1 0.481797 0.217713 0.22064  0.0963181414474
 H1 0.981785 0.217712 0.22064  0.0963181414474
 H1 0.244548 0.052971 0.10118  0.0963181414474
 H1 0.744537 0.052972 0.10118  0.0963181414474
 H1 0.196283 0.957925 0.11242  0.0963181414474
 H1 0.696271 0.957926 0.11242  0.0963181414474
 H1 0.169643 0.990972 0.2492  0.0963181414474
 H1 0.669631 0.990972 0.24928  0.0963181414474
 H1 0.220188 0.085733 0.23863  0.0963181414474
 H1 0.720176 0.085733 0.23863  0.0963181414474
 H1 0.280611 0.866247 0.23551  0.0963181414474
 H1 0.780599 0.866247 0.2355  0.0963181414474
 H1 0.390351 0.097431 0.26899  0.0963181414474
 H1 0.890338 0.09743 0.26899  0.0963181414474
 H1 0.201689 0.0686 0.57705  0.0963181414474
 H1 0.701674 0.068603 0.57705  0.0963181414474
 H1 0.03354 0.06611 0.55678  0.0963181414474
 H1 0.533529 0.06611 0.55677  0.0963181414474
 H1 0.094893 0.976611 0.53955  0.0963181414474
 H1 0.594882 0.976607 0.53955  0.0963181414474
 H1 0.384617 0.327222 0.57597  0.0963181414474
 H1 0.884603 0.327223 0.57597  0.0963181414474
 H1 0.371995 0.337438 0.67453  0.0963181414474
 H1 0.871981 0.337438 0.67453  0.0963181414474
 H1 0.392407 0.207896 0.46124  0.0963181414474
 H1 0.89239 0.2079 0.46124  0.0963181414474
 H1 0.134277 0.13804 0.34007  0.0963181414474
 H1 0.634276 0.138015 0.34006  0.0963181414474
 H1 0.27683 0.514512 0.8118  0.0963181414474
 H1 0.776819 0.514512 0.81184  0.0963181414474
 H1 0.297463 0.474176 0.64481  0.0963181414474
 H1 0.797451 0.474177 0.64481  0.0963181414474
 H1 0.324481 0.463278 0.54874  0.0963181414474
 H1 0.824468 0.463279 0.54874  0.0963181414474
 H1 0.053004 0.268339 0.51658  0.0963181414474
 H1 0.552989 0.268343 0.51658  0.0963181414474
 H1 0.214747 0.343467 0.48397  0.0963181414474
 H1 0.714732 0.343472 0.48397  0.0963181414474
 H1 0.232412 0.28242 0.72047  0.0963181414474
 H1 0.732399 0.28242 0.72047  0.0963181414474
 H1 0.494901 0.447191 0.60105  0.0963181414474
 H1 0.994889 0.44719 0.60105  0.0963181414474
 H1 0.446432 0.542046 0.61259  0.0963181414474
 H1 0.946421 0.542047 0.61259  0.0963181414474
 H1 0.419607 0.508419 0.74927  0.0963181414474
 H1 0.919596 0.508419 0.74927  0.0963181414474
 H1 0.470325 0.413814 0.73835  0.0963181414474
 H1 0.970313 0.413815 0.73835  0.0963181414474
 H1 0.030363 0.633418 0.73606  0.0963181414474
 H1 0.530351 0.633418 0.73606  0.0963181414474
 H1 0.140562 0.402417 0.7687  0.0963181414474
 H1 0.64055 0.402417 0.76870  0.0963181414474
 H1 0.048389 0.568624 0.92291  0.0963181414474
 H1 0.548377 0.568624 0.92291  0.0963181414474
 H1 0.216676 0.566136 0.94326  0.0963181414474
 H1 0.716668 0.566139 0.94326  0.0963181414474
 H1 0.155115 0.476679 0.96036  0.0963181414474
 H1 0.655103 0.476684 0.96036  0.0963181414474
 H1 0.365375 0.827249 0.92305  0.0963181414474
 H1 0.865364 0.82725 0.92305  0.0963181414474
 H1 0.378672 0.837828 0.82464  0.0963181414474
 H1 0.878661 0.837829 0.8246  0.0963181414474
 H1 0.35791 0.708048 0.03872  0.0963181414474
 H1 0.857901 0.70805 0.03872  0.0963181414474
 H1 0.115922 0.638034 0.15988  0.0963181414474
 H1 0.615912 0.63804 0.15988  0.0963181414474
 H1 0.473254 0.014455 0.68801  0.0963181414474
 H1 0.973242 0.014455 0.68801  0.0963181414474
 H1 0.452694 0.974552 0.85483  0.0963181414474
 H1 0.952682 0.974554 0.85483  0.0963181414474
 H1 0.425946 0.963261 0.95094  0.0963181414474
 H1 0.925934 0.963262 0.95094  0.0963181414474
 H1 0.196951 0.768779 0.9836  0.0963181414474
 H1 0.696939 0.768777 0.9836  0.0963181414474
 H1 0.035226 0.844221 0.01564  0.0963181414474
 H1 0.535213 0.844219 0.01564  0.0963181414474
 H1 0.018196 0.782245 0.77938  0.0963181414474
 H1 0.518184 0.782244 0.77938  0.0963181414474
 H1 0.255444 0.946982 0.89884  0.0963181414474
 H1 0.755432 0.946983 0.89884  0.0963181414474
 H1 0.30371 0.042029 0.88760  0.0963181414474
 H1 0.803698 0.04203 0.88760  0.0963181414474
 H1 0.330351 0.0 0.75073  0.0963181414474
 H1 0.830338 0.0 0.75073  0.0963181414474
 H1 0.279804 0.914226 0.76139  0.0963181414474
 H1 0.779791 0.914226 0.76139  0.0963181414474
 H1 0.219383 0.133713 0.76451  0.0963181414474
 H1 0.71937 0.133713 0.76451  0.0963181414474
 H1 0.109641 0.902531 0.73103  0.0963181414474
 H1 0.609628 0.902531 0.73103  0.0963181414474
 C1 0.281795 0.901688 0.47517  -0.149311770833
 C1 0.781784 0.901688 0.47517  -0.149311770833
 C2 0.340719 0.903655 0.54333  0.2642065625
 C2 0.840707 0.903657 0.54333  0.2642065625
 C3 0.455017 0.979665 0.48608  0.0801615625
 C3 0.955002 0.979673 0.48608  0.0801615625
 C4 0.156613 0.643332 0.3829  -0.0340109375
 C4 0.6566 0.643333 0.3829  -0.0340109375
 C1 0.173366 0.822328 0.53941  -0.149311770833
 C1 0.673358 0.822323 0.53941  -0.149311770833
 C1 0.317412 0.86257 0.60843  -0.149311770833
 C1 0.8174 0.862571 0.60843  -0.149311770833
 C5 0.198247 0.86014 0.47328  -0.1019434375
 C5 0.698234 0.860142 0.47328  -0.1019434375
 C6 0.135952 0.856165 0.39924  0.6472865625
 C6 0.63594 0.856166 0.39924  0.6472865625
 C7 0.293824 0.478007 0.21236  -0.0625959375
 C7 0.793812 0.478008 0.21236  -0.0625959375
 C5 0.233366 0.822838 0.60710  -0.1019434375
 C5 0.733353 0.822841 0.60710  -0.1019434375
 C8 0.153283 0.553124 0.39132  -0.1425834375
 C8 0.65327 0.553125 0.39132  -0.1425834375
 C6 0.206414 0.780309 0.67713  0.6472865625
 C6 0.706403 0.780312 0.67713  0.6472865625
 C7 0.38641 0.715629 0.44582  -0.0625959375
 C7 0.886397 0.715629 0.44582  -0.0625959375
 C7 0.307172 0.678332 0.46245  -0.0625959375
 C7 0.807159 0.678332 0.46245  -0.0625959375
 C9 0.295511 0.710787 0.33898  0.1513715625
 C9 0.795498 0.710787 0.33898  0.1513715625
 C8 0.056314 0.520104 0.36881  -0.1425834375
 C8 0.556301 0.520104 0.36881  -0.1425834375
 C4 0.030679 0.524589 0.2817  -0.0340109375
 C4 0.530667 0.524589 0.2817  -0.0340109375
 C9 0.419823 0.413172 0.25063  0.1513715625
 C9 0.91981 0.413173 0.25063  0.1513715625
 C7 0.360315 0.533413 0.23330  -0.0625959375
 C7 0.860303 0.533414 0.23330  -0.0625959375
 C1 0.46806 0.401625 0.02490  -0.149311770833
 C1 0.968049 0.401628 0.02490  -0.149311770833
 C2 0.409136 0.403595 0.95676  0.2642065625
 C2 0.909126 0.403601 0.95676  0.2642065625
 C3 0.294912 0.479647 0.01396  0.0801615625
 C3 0.7949 0.479648 0.01396  0.0801615625
 C4 0.093072 0.143121 0.11776  -0.0340109375
 C4 0.593062 0.143122 0.11776  -0.0340109375
 C1 0.076355 0.322202 0.96065  -0.149311770833
 C1 0.576342 0.322197 0.96066  -0.149311770833
 C1 0.432365 0.362507 0.89165  -0.149311770833
 C1 0.932355 0.362513 0.89165  -0.149311770833
 C5 0.051558 0.360048 0.02678  -0.1019434375
 C5 0.551555 0.36006 0.02678  -0.1019434375
 C6 0.113927 0.356133 0.10078  0.6472865625
 C6 0.613923 0.356143 0.1007  0.6472865625
 C7 0.456119 0.977967 0.28771  -0.0625959375
 C7 0.956107 0.977967 0.28771  -0.0625959375
 C5 0.016349 0.322743 0.89297  -0.1019434375
 C5 0.516341 0.322746 0.89297  -0.1019434375
 C8 0.096422 0.052956 0.10906  -0.1425834375
 C8 0.596411 0.052957 0.10906  -0.1425834375
 C6 0.04324 0.28029 0.82290  0.6472865625
 C6 0.543231 0.280292 0.82290  0.6472865625
 C7 0.363503 0.215304 0.05414  -0.0625959375
 C7 0.863488 0.215301 0.05414  -0.0625959375
 C7 0.442741 0.177866 0.03781  -0.0625959375
 C7 0.942726 0.177863 0.03781  -0.0625959375
 C9 0.454098 0.210782 0.1611  0.1513715625
 C9 0.954085 0.210781 0.16116  0.1513715625
 C8 0.193469 0.020051 0.13129  -0.1425834375
 C8 0.693457 0.020052 0.13129  -0.1425834375
 C4 0.219243 0.024252 0.21834  -0.0340109375
 C4 0.719231 0.024251 0.21834  -0.0340109375
 C9 0.330289 0.91297 0.24908  0.1513715625
 C9 0.830278 0.91297 0.2490  0.1513715625
 C7 0.389566 0.033305 0.26684  -0.0625959375
 C7 0.889553 0.033305 0.26684  -0.0625959375
 C1 0.218207 0.098268 0.52484  -0.149311770833
 C1 0.718189 0.098275 0.52484  -0.149311770833
 C2 0.15928 0.096302 0.45668  0.2642065625
 C2 0.659266 0.096303 0.45668  0.2642065625
 C3 0.044981 0.020293 0.51393  0.0801615625
 C3 0.544972 0.020286 0.51393  0.0801615625
 C4 0.343387 0.356623 0.61708  -0.0340109375
 C4 0.843373 0.356624 0.61708  -0.0340109375
 C1 0.326634 0.177627 0.46059  -0.149311770833
 C1 0.826609 0.177644 0.46060  -0.149311770833
 C1 0.182584 0.137392 0.39158  -0.149311770833
 C1 0.682571 0.137388 0.39158  -0.149311770833
 C5 0.301752 0.139819 0.52673  -0.1019434375
 C5 0.801739 0.139821 0.52673  -0.1019434375
 C6 0.364045 0.1438 0.6007  0.6472865625
 C6 0.864033 0.1438 0.6007  0.6472865625
 C7 0.206173 0.521955 0.78766  -0.0625959375
 C7 0.706162 0.521955 0.78766  -0.0625959375
 C5 0.266626 0.17713 0.39291  -0.1019434375
 C5 0.766618 0.177118 0.39291  -0.1019434375
 C8 0.346714 0.44683 0.60869  -0.1425834375
 C8 0.846702 0.446832 0.60869  -0.1425834375
 C6 0.293573 0.219664 0.32288  0.6472865625
 C6 0.793562 0.219652 0.32288  0.6472865625
 C7 0.11359 0.284326 0.55419  -0.0625959375
 C7 0.613575 0.284329 0.55419  -0.0625959375
 C7 0.192829 0.321622 0.53757  -0.0625959375
 C7 0.692814 0.321625 0.53757  -0.0625959375
 C9 0.204487 0.289169 0.66103  0.1513715625
 C9 0.704474 0.28917 0.66103  0.1513715625
 C8 0.443683 0.479852 0.63121  -0.1425834375
 C8 0.943671 0.479852 0.63121  -0.1425834375
 C4 0.469318 0.475369 0.71827  -0.0340109375
 C4 0.969306 0.47537 0.71827  -0.0340109375
 C9 0.080174 0.586788 0.74938  0.1513715625
 C9 0.580162 0.586788 0.74938  0.1513715625
 C7 0.139683 0.466548 0.76672  -0.0625959375
 C7 0.639671 0.466548 0.76672  -0.0625959375
 C1 0.031928 0.598328 0.97511  -0.149311770833
 C1 0.531916 0.598328 0.97511  -0.149311770833
 C2 0.090851 0.596356 0.04326  0.2642065625
 C2 0.590839 0.596357 0.0432  0.2642065625
 C3 0.205076 0.520304 0.98606  0.0801615625
 C3 0.705066 0.520308 0.98606  0.0801615625
 C4 0.406919 0.856833 0.88226  -0.0340109375
 C4 0.906907 0.856834 0.88226  -0.0340109375
 C1 0.423636 0.677759 0.03936  -0.149311770833
 C1 0.923627 0.677762 0.03936  -0.149311770833
 C1 0.067623 0.637447 0.10837  -0.149311770833
 C1 0.567611 0.637449 0.1083  -0.149311770833
 C5 0.448426 0.6399 0.97324  -0.1019434375
 C5 0.948415 0.639901 0.97324  -0.1019434375
 C6 0.386062 0.643824 0.89923  0.6472865625
 C6 0.886051 0.643825 0.89923  0.6472865625
 C7 0.043874 0.021995 0.71231  -0.0625959375
 C7 0.543861 0.021995 0.71231  -0.0625959375
 C5 0.483639 0.677217 0.10704  -0.1019434375
 C5 0.983627 0.677215 0.10704  -0.1019434375
 C8 0.40357 0.946997 0.8909  -0.1425834375
 C8 0.903558 0.946999 0.8909  -0.1425834375
 C6 0.45675 0.719678 0.17711  0.6472865625
 C6 0.956739 0.719676 0.17711  0.6472865625
 C7 0.136491 0.784652 0.94588  -0.0625959375
 C7 0.636479 0.784651 0.94588  -0.0625959375
 C7 0.057253 0.822089 0.9622  -0.0625959375
 C7 0.55724 0.822087 0.9622  -0.0625959375
 C9 0.045895 0.789175 0.83886  0.1513715625
 C9 0.545882 0.789174 0.83886  0.1513715625
 C8 0.306524 0.979904 0.86873  -0.1425834375
 C8 0.806511 0.979904 0.86873  -0.1425834375
 C4 0.280749 0.975708 0.7816  -0.0340109375
 C4 0.780736 0.975708 0.7816  -0.0340109375
 C9 0.169704 0.086991 0.75094  0.1513715625
 C9 0.669691 0.086991 0.75094  0.1513715625
 C7 0.110426 0.966656 0.73318  -0.0625959375
 C7 0.610414 0.966656 0.73318  -0.0625959375
 N1 0.250145 0.675712 0.39423  0.0478065625
 N1 0.750133 0.675712 0.39423  0.0478065625
 N2 0.378521 0.7354 0.36840  -0.3859034375
 N2 0.878509 0.7354 0.36840  -0.3859034375
 N2 0.33182 0.40306 0.22355  -0.3859034375
 N2 0.831807 0.403061 0.22355  -0.3859034375
 N1 0.439644 0.491447 0.25747  0.0478065625
 N1 0.939632 0.491447 0.25747  0.0478065625
 N1 0.499567 0.17545 0.10615  0.0478065625
 N1 0.999553 0.175448 0.10615  0.0478065625
 N2 0.371212 0.23536 0.13149  -0.3859034375
 N2 0.871199 0.235359 0.13149  -0.3859034375
 N2 0.418263 0.902971 0.27626  -0.3859034375
 N2 0.918251 0.902971 0.27626  -0.3859034375
 N1 0.310344 0.991219 0.24244  0.0478065625
 N1 0.810332 0.991219 0.24244  0.0478065625
 N1 0.249854 0.324242 0.60579  0.0478065625
 N1 0.74984 0.324244 0.60579  0.0478065625
 N2 0.121477 0.264558 0.63161  -0.3859034375
 N2 0.621463 0.264559 0.63161  -0.3859034375
 N2 0.168177 0.596902 0.77647  -0.3859034375
 N2 0.668165 0.596902 0.77647  -0.3859034375
 N1 0.060353 0.508513 0.74254  0.0478065625
 N1 0.560341 0.508513 0.74254  0.0478065625
 N1 0.000426 0.824505 0.89387  0.0478065625
 N1 0.500413 0.824504 0.89387  0.0478065625
 N2 0.128781 0.764598 0.8685  -0.3859034375
 N2 0.628769 0.764596 0.8685  -0.3859034375
 N2 0.08173 0.096991 0.72375  -0.3859034375
 N2 0.581717 0.096991 0.72375  -0.3859034375
 N1 0.189649 0.008741 0.75758  0.0478065625
 N1 0.689636 0.008742 0.75758  0.0478065625
 O1 0.062596 0.812728 0.40343  -0.6262784375
 O1 0.562586 0.812726 0.4034  -0.6262784375
 O2 0.422591 0.943677 0.55283  -0.2696084375
 O2 0.922574 0.943686 0.55283  -0.2696084375
 O3 0.125328 0.756967 0.68001  -0.5983934375
 O3 0.625318 0.756965 0.68001  -0.5983934375
 O3 0.155793 0.89174 0.34039  -0.5983934375
 O3 0.655783 0.891738 0.34039  -0.5983934375
 O1 0.271694 0.770562 0.73304  -0.6262784375
 O1 0.771684 0.770561 0.73304  -0.6262784375
 O1 0.187253 0.312718 0.09657  -0.6262784375
 O1 0.687238 0.312714 0.09657  -0.6262784375
 O2 0.327352 0.443669 0.94724  -0.2696084375
 O2 0.827334 0.443663 0.94724  -0.2696084375
 O3 0.124321 0.257 0.81997  -0.5983934375
 O3 0.624311 0.256999 0.81997  -0.5983934375
 O3 0.094188 0.39176 0.15963  -0.5983934375
 O3 0.594173 0.391756 0.15963  -0.5983934375
 O1 0.477931 0.270541 0.76698  -0.6262784375
 O1 0.977917 0.270544 0.76698  -0.6262784375
 O1 0.4374 0.187239 0.59658  -0.6262784375
 O1 0.937384 0.187245 0.59658  -0.6262784375
 O2 0.077402 0.056289 0.44718  -0.2696084375
 O2 0.577404 0.056266 0.44718  -0.2696084375
 O3 0.374661 0.243 0.3  -0.5983934375
 O3 0.874644 0.243008 0.32000  -0.5983934375
 O3 0.344204 0.108227 0.65962  -0.5983934375
 O3 0.844189 0.108231 0.65962  -0.5983934375
 O1 0.228293 0.229406 0.26697  -0.6262784375
 O1 0.728275 0.229413 0.26697  -0.6262784375
 O1 0.312748 0.687254 0.90344  -0.6262784375
 O1 0.812737 0.687255 0.90344  -0.6262784375
 O2 0.172635 0.556282 0.05278  -0.2696084375
 O2 0.672626 0.556287 0.05278  -0.2696084375
 O3 0.37567 0.742972 0.18004  -0.5983934375
 O3 0.87566 0.742973 0.18004  -0.5983934375
 O3 0.405812 0.608211 0.84038  -0.5983934375
 O3 0.9058 0.608211 0.84038  -0.5983934375
 O1 0.022063 0.729428 0.23303  -0.6262784375
 O1 0.522049 0.729427 0.23303  -0.6262784375
