#======================================================================

# CRYSTAL DATA

#----------------------------------------------------------------------

data_VESTA_phase_1


_pd_phase_name                         MOF
_cell_length_a                         20.24300
_cell_length_b                         22.89600
_cell_length_c                         13.99000
_cell_angle_alpha                      90.00500
_cell_angle_beta                       100.93800
_cell_angle_gamma                      89.99600
_symmetry_space_group_name_H-M         "P 1"
_symmetry_Int_Tables_number            1

loop_
_symmetry_equiv_pos_as_xyz
   "x, y, z"

loop_
   _atom_site_label
   _atom_site_fract_x
   _atom_site_fract_y
   _atom_site_fract_z
 _atom_site_charge
 Zn1 0.186366 0.0 0.60058  0.877777432432
 Zn1 0.186372 0.500002 0.60058  0.877777432432
 Zn1 0.68637 0.0 0.60058  0.877777432432
 Zn1 0.686374 0.500002 0.60058  0.877777432432
 Zn1 0.313637 0.999999 0.39939  0.877777432432
 Zn1 0.313634 0.500001 0.39939  0.877777432432
 Zn1 0.81364 0.999999 0.39940  0.877777432432
 Zn1 0.813638 0.500002 0.39938  0.877777432432
 H1 0.252438 0.401863 0.72998  0.106492886978
 H1 0.252429 0.901865 0.73000  0.106492886978
 H1 0.752511 0.401861 0.72994  0.106492886978
 H1 0.752426 0.901865 0.73000  0.106492886978
 H1 0.256031 0.293705 0.73673  0.106492886978
 H1 0.25602 0.793707 0.7367  0.106492886978
 H1 0.75612 0.293703 0.73667  0.106492886978
 H1 0.756014 0.793707 0.73675  0.106492886978
 H1 0.123597 0.293528 0.45422  0.106492886978
 H1 0.123611 0.793533 0.4542  0.106492886978
 H1 0.623516 0.293532 0.454  0.106492886978
 H1 0.623628 0.793532 0.45420  0.106492886978
 H1 0.125712 0.40151 0.46162  0.106492886978
 H1 0.125725 0.901514 0.46161  0.106492886978
 H1 0.625649 0.401515 0.46168  0.106492886978
 H1 0.625742 0.901513 0.46160  0.106492886978
 H1 0.247579 0.401854 0.2699  0.106492886978
 H1 0.247626 0.901859 0.26995  0.106492886978
 H1 0.74756 0.401854 0.26999  0.106492886978
 H1 0.747729 0.901862 0.26988  0.106492886978
 H1 0.243983 0.293695 0.26323  0.106492886978
 H1 0.244037 0.793701 0.26319  0.106492886978
 H1 0.743953 0.293696 0.26326  0.106492886978
 H1 0.744166 0.793704 0.26310  0.106492886978
 H1 0.376403 0.293537 0.5457  0.106492886978
 H1 0.376358 0.793538 0.545  0.106492886978
 H1 0.87644 0.29354 0.54573  0.106492886978
 H1 0.876236 0.793534 0.54590  0.106492886978
 H1 0.374293 0.401518 0.53835  0.106492886978
 H1 0.374261 0.901519 0.53839  0.106492886978
 H1 0.874327 0.401521 0.53832  0.106492886978
 H1 0.874163 0.901514 0.53848  0.106492886978
 H1 0.247528 0.098138 0.27002  0.106492886978
 H1 0.247487 0.598143 0.27005  0.106492886978
 H1 0.747563 0.098139 0.27000  0.106492886978
 H1 0.74738 0.598146 0.27012  0.106492886978
 H1 0.24392 0.206296 0.2632  0.106492886978
 H1 0.243871 0.706301 0.26332  0.106492886978
 H1 0.743966 0.206296 0.26325  0.106492886978
 H1 0.74374 0.706304 0.26343  0.106492886978
 H1 0.376457 0.20647 0.54571  0.106492886978
 H1 0.37651 0.706471 0.54567  0.106492886978
 H1 0.876422 0.206473 0.54574  0.106492886978
 H1 0.876647 0.706466 0.5455  0.106492886978
 H1 0.374336 0.098487 0.53832  0.106492886978
 H1 0.374376 0.598489 0.53828  0.106492886978
 H1 0.874303 0.098491 0.53835  0.106492886978
 H1 0.874487 0.598483 0.53818  0.106492886978
 H1 0.25247 0.098146 0.72997  0.106492886978
 H1 0.25247 0.598149 0.7299  0.106492886978
 H1 0.752399 0.098144 0.73002  0.106492886978
 H1 0.752485 0.598149 0.72996  0.106492886978
 H1 0.25608 0.206305 0.736  0.106492886978
 H1 0.25608 0.706307 0.73670  0.106492886978
 H1 0.755994 0.206303 0.7367  0.106492886978
 H1 0.756099 0.706306 0.73668  0.106492886978
 H1 0.123543 0.206462 0.45427  0.106492886978
 H1 0.123549 0.706466 0.4542  0.106492886978
 H1 0.623635 0.206466 0.454  0.106492886978
 H1 0.623534 0.706465 0.45428  0.106492886978
 H1 0.125659 0.098481 0.46167  0.106492886978
 H1 0.125668 0.598485 0.46166  0.106492886978
 H1 0.625734 0.098485 0.46160  0.106492886978
 H1 0.625653 0.598484 0.46168  0.106492886978
 H1 0.455978 0.999993 0.5900  0.106492886978
 H1 0.45598 0.500009 0.59006  0.106492886978
 H1 0.955975 0.999988 0.59007  0.106492886978
 H1 0.95599 0.499992 0.59006  0.106492886978
 H1 0.079023 0.999987 0.87703  0.106492886978
 H1 0.079029 0.500011 0.87703  0.106492886978
 H1 0.579029 0.999982 0.87703  0.106492886978
 H1 0.579029 0.500007 0.87703  0.106492886978
 H1 0.362697 0.999981 0.84330  0.106492886978
 H1 0.362697 0.500011 0.84330  0.106492886978
 H1 0.862697 0.999992 0.84331  0.106492886978
 H1 0.862703 0.500018 0.84329  0.106492886978
 H1 0.044026 0.999986 0.40991  0.106492886978
 H1 0.044026 0.499986 0.40990  0.106492886978
 H1 0.544037 0.999995 0.40991  0.106492886978
 H1 0.544022 0.500009 0.40991  0.106492886978
 H1 0.420983 0.999994 0.1229  0.106492886978
 H1 0.420976 0.500004 0.12294  0.106492886978
 H1 0.920983 0.999989 0.12295  0.106492886978
 H1 0.920983 0.500007 0.1229  0.106492886978
 H1 0.137308 0.999988 0.15668  0.106492886978
 H1 0.137309 0.500002 0.15667  0.106492886978
 H1 0.637315 0.999994 0.15667  0.106492886978
 H1 0.637309 0.499996 0.1566  0.106492886978
 C1 0.224865 0.375543 0.67065  0.180692432432
 C1 0.22486 0.875545 0.67066  0.180692432432
 C1 0.724908 0.375542 0.67063  0.180692432432
 C1 0.724861 0.875545 0.67066  0.180692432432
 C2 0.226417 0.314883 0.67314  -0.142686853282
 C2 0.226413 0.814886 0.67315  -0.142686853282
 C2 0.726465 0.314882 0.67311  -0.142686853282
 C2 0.726411 0.814885 0.67315  -0.142686853282
 C3 0.190193 0.282422 0.59519  -0.0275850675676
 C3 0.190194 0.782425 0.59519  -0.0275850675676
 C3 0.690197 0.282423 0.59519  -0.0275850675676
 C3 0.6902 0.782424 0.59519  -0.0275850675676
 C2 0.153408 0.314781 0.51757  -0.142686853282
 C2 0.153418 0.814785 0.51756  -0.142686853282
 C2 0.65337 0.314784 0.51761  -0.142686853282
 C2 0.653428 0.814784 0.51756  -0.142686853282
 C1 0.15417 0.375417 0.52046  0.180692432432
 C1 0.154178 0.875421 0.52046  0.180692432432
 C1 0.654136 0.37542 0.52050  0.180692432432
 C1 0.654191 0.87542 0.52045  0.180692432432
 C1 0.27515 0.375538 0.32931  0.180692432432
 C1 0.275179 0.875542 0.32929  0.180692432432
 C1 0.775141 0.375539 0.32932  0.180692432432
 C1 0.775239 0.875543 0.32926  0.180692432432
 C2 0.273593 0.314878 0.32683  -0.142686853282
 C2 0.273622 0.814882 0.32681  -0.142686853282
 C2 0.773584 0.314879 0.32684  -0.142686853282
 C2 0.773689 0.814883 0.32676  -0.142686853282
 C3 0.309813 0.282421 0.40478  -0.0275850675676
 C3 0.309818 0.782425 0.40478  -0.0275850675676
 C3 0.809817 0.282423 0.40478  -0.0275850675676
 C3 0.809821 0.782424 0.40478  -0.0275850675676
 C2 0.346594 0.314786 0.48241  -0.142686853282
 C2 0.346572 0.814788 0.48243  -0.142686853282
 C2 0.846619 0.314788 0.48239  -0.142686853282
 C2 0.846512 0.814785 0.48249  -0.142686853282
 C1 0.345837 0.375421 0.47951  0.180692432432
 C1 0.345822 0.875423 0.47953  0.180692432432
 C1 0.845858 0.375424 0.47949  0.180692432432
 C1 0.845767 0.87542 0.47958  0.180692432432
 C1 0.275118 0.124457 0.32934  0.180692432432
 C1 0.275094 0.624462 0.3293  0.180692432432
 C1 0.775139 0.124459 0.32933  0.180692432432
 C1 0.775035 0.624463 0.32939  0.180692432432
 C2 0.273563 0.185117 0.32685  -0.142686853282
 C2 0.27354 0.685122 0.32687  -0.142686853282
 C2 0.773585 0.185118 0.32684  -0.142686853282
 C2 0.773475 0.685123 0.32692  -0.142686853282
 C3 0.30981 0.217578 0.40478  -0.0275850675676
 C3 0.309812 0.717581 0.40478  -0.0275850675676
 C3 0.809815 0.21758 0.40478  -0.0275850675676
 C3 0.809815 0.71758 0.40478  -0.0275850675676
 C2 0.346624 0.185218 0.48238  -0.142686853282
 C2 0.346653 0.68522 0.48236  -0.142686853282
 C2 0.846604 0.18522 0.48241  -0.142686853282
 C2 0.846725 0.685217 0.48230  -0.142686853282
 C1 0.345859 0.124581 0.47949  0.180692432432
 C1 0.345881 0.624584 0.47947  0.180692432432
 C1 0.845842 0.124584 0.47951  0.180692432432
 C1 0.845946 0.62458 0.47941  0.180692432432
 C1 0.224879 0.124462 0.67065  0.180692432432
 C1 0.224882 0.624465 0.67064  0.180692432432
 C1 0.724841 0.124461 0.67067  0.180692432432
 C1 0.72489 0.624464 0.67064  0.180692432432
 C2 0.226438 0.185122 0.67313  -0.142686853282
 C2 0.226438 0.685125 0.67313  -0.142686853282
 C2 0.726395 0.185121 0.67316  -0.142686853282
 C2 0.72645 0.685124 0.67312  -0.142686853282
 C3 0.19019 0.217578 0.59520  -0.0275850675676
 C3 0.190194 0.717581 0.595  -0.0275850675676
 C3 0.690194 0.217579 0.59519  -0.0275850675676
 C3 0.690196 0.717581 0.595  -0.0275850675676
 C2 0.153377 0.185213 0.51760  -0.142686853282
 C2 0.15338 0.685218 0.51759  -0.142686853282
 C2 0.653425 0.185216 0.51756  -0.142686853282
 C2 0.653374 0.685216 0.51760  -0.142686853282
 C1 0.154137 0.124578 0.52050  0.180692432432
 C1 0.154144 0.624582 0.52049  0.180692432432
 C1 0.654181 0.124581 0.52045  0.180692432432
 C1 0.654135 0.624581 0.52050  0.180692432432
 C4 0.333217 0.999997 0.64486  0.653122432432
 C4 0.333219 0.500008 0.6448  0.653122432432
 C4 0.833216 0.999999 0.64486  0.653122432432
 C4 0.833227 0.500004 0.64485  0.653122432432
 C3 0.401641 0.999993 0.70960  -0.0275850675676
 C3 0.401642 0.500007 0.70960  -0.0275850675676
 C3 0.90164 0.999997 0.70961  -0.0275850675676
 C3 0.90165 0.500008 0.70960  -0.0275850675676
 C2 0.459802 0.999991 0.66890  -0.142686853282
 C2 0.459803 0.500008 0.668  -0.142686853282
 C2 0.9598 0.999991 0.66890  -0.142686853282
 C2 0.959812 0.500001 0.66889  -0.142686853282
 C3 0.02366 0.999989 0.7295  -0.0275850675676
 C3 0.02367 0.500005 0.72952  -0.0275850675676
 C3 0.523668 0.999988 0.72952  -0.0275850675676
 C3 0.523669 0.500006 0.72952  -0.0275850675676
 C4 0.086094 0.999984 0.68598  0.653122432432
 C4 0.086107 0.499996 0.68598  0.653122432432
 C4 0.586104 0.999989 0.68598  0.653122432432
 C4 0.586104 0.50001 0.68598  0.653122432432
 C2 0.029405 0.999992 0.83052  -0.142686853282
 C2 0.029413 0.500012 0.8305  -0.142686853282
 C2 0.529412 0.999988 0.83052  -0.142686853282
 C2 0.529412 0.500004 0.83052  -0.142686853282
 C5 0.47121 0.999981 0.87170  0.138162432432
 C5 0.47121 0.500007 0.87170  0.138162432432
 C5 0.97121 0.99999 0.87171  0.138162432432
 C5 0.971216 0.500018 0.87170  0.138162432432
 C2 0.407613 0.999983 0.81101  -0.142686853282
 C2 0.407613 0.500007 0.81100  -0.142686853282
 C2 0.907612 0.999993 0.81101  -0.142686853282
 C2 0.907619 0.500019 0.81100  -0.142686853282
 C4 0.166788 0.999993 0.35512  0.653122432432
 C4 0.166787 0.499995 0.35511  0.653122432432
 C4 0.666796 0.999995 0.35511  0.653122432432
 C4 0.666785 0.499998 0.35512  0.653122432432
 C3 0.098364 0.999992 0.2903  -0.0275850675676
 C3 0.098363 0.499996 0.29037  -0.0275850675676
 C3 0.598372 0.999996 0.29037  -0.0275850675676
 C3 0.598361 0.499999 0.29037  -0.0275850675676
 C2 0.040203 0.999989 0.33108  -0.142686853282
 C2 0.040203 0.499993 0.33107  -0.142686853282
 C2 0.540212 0.999995 0.33108  -0.142686853282
 C2 0.5402 0.500005 0.33108  -0.142686853282
 C3 0.476346 0.999995 0.27045  -0.0275850675676
 C3 0.476335 0.500007 0.27045  -0.0275850675676
 C3 0.976344 0.999989 0.27045  -0.0275850675676
 C3 0.976344 0.499996 0.2704  -0.0275850675676
 C4 0.41391 0.999994 0.31399  0.653122432432
 C4 0.413897 0.500013 0.31398  0.653122432432
 C4 0.913906 0.999986 0.31399  0.653122432432
 C4 0.913908 0.499989 0.31399  0.653122432432
 C2 0.470601 0.999996 0.16946  -0.142686853282
 C2 0.470593 0.500002 0.16945  -0.142686853282
 C2 0.9706 0.999992 0.16946  -0.142686853282
 C2 0.9706 0.500004 0.16945  -0.142686853282
 C5 0.028795 0.99999 0.12827  0.138162432432
 C5 0.028796 0.50001 0.12827  0.138162432432
 C5 0.528802 0.999992 0.12827  0.138162432432
 C5 0.528796 0.5 0.12827  0.138162432432
 C2 0.092392 0.99999 0.18897  -0.142686853282
 C2 0.092393 0.500003 0.18896  -0.142686853282
 C2 0.5924 0.999993 0.18897  -0.142686853282
 C2 0.592392 0.5 0.18897  -0.142686853282
 N1 0.18966 0.405755 0.59532  -0.293082567568
 N1 0.189659 0.905758 0.59533  -0.293082567568
 N1 0.689663 0.405756 0.59533  -0.293082567568
 N1 0.689669 0.905758 0.59532  -0.293082567568
 N1 0.310355 0.405755 0.40464  -0.293082567568
 N1 0.310365 0.905758 0.40464  -0.293082567568
 N1 0.810358 0.405757 0.40464  -0.293082567568
 N1 0.810368 0.905757 0.40465  -0.293082567568
 N1 0.310345 0.094244 0.40465  -0.293082567568
 N1 0.31034 0.594247 0.40465  -0.293082567568
 N1 0.810351 0.094246 0.40465  -0.293082567568
 N1 0.810343 0.594247 0.4046  -0.293082567568
 N1 0.189648 0.094245 0.59534  -0.293082567568
 N1 0.189656 0.594248 0.59533  -0.293082567568
 N1 0.689651 0.094246 0.59533  -0.293082567568
 N1 0.689653 0.594247 0.59534  -0.293082567568
 N2 0.470792 0.999978 0.97296  -0.154972567568
 N2 0.47079 0.500011 0.97296  -0.154972567568
 N2 0.970793 0.999986 0.97297  -0.154972567568
 N2 0.970796 0.500014 0.97296  -0.154972567568
 N2 0.029213 0.99999 0.0270  -0.154972567568
 N2 0.029215 0.500011 0.02701  -0.154972567568
 N2 0.529219 0.999995 0.02701  -0.154972567568
 N2 0.529216 0.499998 0.02701  -0.154972567568
 O1 0.282279 0.999995 0.68677  -0.591589234234
 O1 0.282281 0.500002 0.68676  -0.591589234234
 O1 0.782278 0.999999 0.68677  -0.591589234234
 O1 0.782289 0.500006 0.68676  -0.591589234234
 O1 0.330105 2e-06 0.553  -0.591589234234
 O1 0.330108 0.500006 0.55379  -0.591589234234
 O1 0.830104 6e-06 0.55380  -0.591589234234
 O1 0.830115 0.500011 0.55379  -0.591589234234
 O1 0.07939 5e-06 0.59296  -0.591589234234
 O1 0.079406 0.500005 0.59296  -0.591589234234
 O1 0.579402 0.0 0.59296  -0.591589234234
 O1 0.579401 0.5 0.59296  -0.591589234234
 O2 0.143543 2e-06 0.74143  -0.591322567568
 O2 0.143554 0.500003 0.74144  -0.591322567568
 O2 0.643552 1e-06 0.7414  -0.591322567568
 O2 0.643552 0.5 0.74143  -0.591322567568
 O1 0.217725 0.999996 0.3132  -0.591589234234
 O1 0.217724 0.500003 0.31320  -0.591589234234
 O1 0.717734 0.999993 0.31320  -0.591589234234
 O1 0.717721 0.499997 0.3132  -0.591589234234
 O1 0.169902 0.999998 0.44618  -0.591589234234
 O1 0.1699 0.500002 0.4461  -0.591589234234
 O1 0.66991 0.999995 0.44618  -0.591589234234
 O1 0.669899 0.499999 0.44618  -0.591589234234
 O1 0.420612 1e-06 0.40702  -0.591589234234
 O1 0.420597 0.499998 0.40701  -0.591589234234
 O1 0.920606 5e-06 0.40701  -0.591589234234
 O1 0.92061 0.50001 0.40701  -0.591589234234
 O2 0.356463 0.999998 0.25854  -0.591322567568
 O2 0.356451 0.499993 0.25853  -0.591322567568
 O2 0.856459 0.999998 0.2585  -0.591322567568
 O2 0.85646 0.500002 0.25853  -0.591322567568
