#======================================================================

# CRYSTAL DATA

#----------------------------------------------------------------------

data_VESTA_phase_1


_pd_phase_name                         MOF
_cell_length_a                         12.81100
_cell_length_b                         14.28000
_cell_length_c                         14.19000
_cell_angle_alpha                      78.50700
_cell_angle_beta                       63.46700
_cell_angle_gamma                      63.52700
_symmetry_space_group_name_H-M         "P 1"
_symmetry_Int_Tables_number            1

loop_
_symmetry_equiv_pos_as_xyz
   "x, y, z"

loop_
   _atom_site_label
   _atom_site_fract_x
   _atom_site_fract_y
   _atom_site_fract_z
 _atom_site_charge
 Cu1 0.181814 0.462178 0.99905  0.285748359375
 Cu1 0.645761 0.535581 0.99972  0.285748359375
 Cu1 0.430483 0.500455 0.96329  0.285748359375
 Cu1 0.894331 0.500324 0.03792  0.285748359375
 Cu1 0.645801 0.998738 0.53687  0.285748359375
 Cu1 0.181919 0.998536 0.46233  0.285748359375
 Cu1 0.894632 0.037091 0.50030  0.285748359375
 Cu1 0.430344 0.963684 0.5007  0.285748359375
 H1 0.718662 0.410409 0.25897  0.0985581510417
 H1 0.783544 0.369354 0.12794  0.0985581510417
 H1 0.358305 0.241439 0.0868  0.0985581510417
 H1 0.292926 0.370572 0.1310  0.0985581510417
 H1 0.377631 0.594719 0.74639  0.0985581510417
 H1 0.275314 0.636605 0.87757  0.0985581510417
 H1 0.695769 0.753293 0.909  0.0985581510417
 H1 0.798966 0.623495 0.86562  0.0985581510417
 H1 0.22384 0.2449 0.90792  0.0985581510417
 H1 0.163304 0.373839 0.8626  0.0985581510417
 H1 0.696507 0.412003 0.74041  0.0985581510417
 H1 0.670959 0.372199 0.87196  0.0985581510417
 H1 0.37937 0.752817 0.08982  0.0985581510417
 H1 0.404991 0.622866 0.13274  0.0985581510417
 H1 0.851843 0.591453 0.25702  0.0985581510417
 H1 0.912875 0.63569 0.12690  0.0985581510417
 H1 0.377041 0.748595 0.59353  0.0985581510417
 H1 0.274696 0.878332 0.63747  0.0985581510417
 H1 0.696214 0.906768 0.75542  0.0985581510417
 H1 0.799315 0.864157 0.62455  0.0985581510417
 H1 0.719113 0.25584 0.41124  0.0985581510417
 H1 0.785164 0.126711 0.36688  0.0985581510417
 H1 0.35865 0.087046 0.2394  0.0985581510417
 H1 0.294203 0.128316 0.37032  0.0985581510417
 H1 0.378996 0.089544 0.75665  0.0985581510417
 H1 0.405335 0.129803 0.62513  0.0985581510417
 H1 0.852261 0.255937 0.58951  0.0985581510417
 H1 0.912915 0.127311 0.63545  0.0985581510417
 H1 0.225018 0.905682 0.24369  0.0985581510417
 H1 0.163024 0.862943 0.37434  0.0985581510417
 H1 0.696271 0.743127 0.41241  0.0985581510417
 H1 0.671032 0.873391 0.3707  0.0985581510417
 H1 0.670461 0.260659 0.25991  0.0985581510417
 H1 0.831798 0.185071 0.18248  0.0985581510417
 H1 0.40773 0.236466 0.23781  0.0985581510417
 H1 0.246593 0.312403 0.31540  0.0985581510417
 H1 0.183202 0.747525 0.74709  0.0985581510417
 H1 0.198096 0.821246 0.82256  0.0985581510417
 H1 0.890117 0.754512 0.75628  0.0985581510417
 H1 0.876626 0.680025 0.68054  0.0985581510417
 H1 0.18342 0.239479 0.75485  0.0985581510417
 H1 0.27085 0.314447 0.67820  0.0985581510417
 H1 0.892751 0.262794 0.74199  0.0985581510417
 H1 0.805944 0.187589 0.81938  0.0985581510417
 H1 0.183122 0.753347 0.24141  0.0985581510417
 H1 0.269716 0.678731 0.31780  0.0985581510417
 H1 0.892774 0.743493 0.26154  0.0985581510417
 H1 0.806297 0.819091 0.1853  0.0985581510417
 C1 0.920785 0.330013 0.1917  0.242718359375
 C1 0.156325 0.306838 0.16873  0.242718359375
 C2 0.792047 0.344981 0.20370  -0.176648723958
 C2 0.285007 0.294946 0.15389  -0.176648723958
 C1 0.439814 0.671944 0.81058  0.242718359375
 C1 0.634757 0.690205 0.82975  0.242718359375
 C2 0.334509 0.659975 0.80108  -0.176648723958
 C2 0.739527 0.699646 0.84268  -0.176648723958
 C1 0.362554 0.308919 0.82793  0.242718359375
 C1 0.574293 0.331728 0.80743  0.242718359375
 C2 0.245921 0.29785 0.84080  -0.176648723958
 C2 0.687629 0.347019 0.79624  -0.176648723958
 C1 0.50171 0.689292 0.17048  0.242718359375
 C1 0.713535 0.670323 0.19233  0.242718359375
 C2 0.388291 0.698943 0.15623  -0.176648723958
 C2 0.830119 0.65779 0.20333  -0.176648723958
 C1 0.43963 0.810738 0.67233  0.242718359375
 C1 0.634746 0.828873 0.69134  0.242718359375
 C2 0.334128 0.80192 0.66002  -0.176648723958
 C2 0.739758 0.84113 0.70107  -0.176648723958
 C1 0.921188 0.190932 0.32969  0.242718359375
 C1 0.156699 0.167761 0.30673  0.242718359375
 C2 0.79276 0.202472 0.34420  -0.176648723958
 C2 0.285567 0.152617 0.29461  -0.176648723958
 C1 0.501841 0.169357 0.69053  0.242718359375
 C1 0.713642 0.192031 0.67012  0.242718359375
 C2 0.388404 0.154613 0.7011  -0.176648723958
 C2 0.830263 0.203299 0.65698  -0.176648723958
 C1 0.362584 0.827571 0.30918  0.242718359375
 C1 0.574267 0.808139 0.3315  0.242718359375
 C2 0.246063 0.839985 0.29816  -0.176648723958
 C2 0.687597 0.797739 0.34642  -0.176648723958
 C3 0.978891 0.254521 0.25482  -0.102231640625
 C3 0.098603 0.243277 0.24366  -0.102231640625
 C2 0.76862 0.245271 0.24446  -0.176648723958
 C2 0.30942 0.252107 0.25350  -0.176648723958
 C3 0.487145 0.746091 0.7464  -0.102231640625
 C3 0.587378 0.754767 0.75554  -0.102231640625
 C2 0.253227 0.760857 0.76093  -0.176648723958
 C2 0.820738 0.740679 0.74196  -0.176648723958
 C3 0.484002 0.244995 0.75395  -0.102231640625
 C3 0.592195 0.255988 0.74409  -0.102231640625
 C2 0.266063 0.254654 0.74055  -0.176648723958
 C2 0.810244 0.247179 0.75680  -0.176648723958
 C3 0.483943 0.753448 0.24555  -0.102231640625
 C3 0.592121 0.744171 0.25625  -0.102231640625
 C2 0.265677 0.739604 0.25654  -0.176648723958
 C2 0.810308 0.757657 0.24607  -0.176648723958
 Br1 0.037898 0.586791 0.91303  -0.417209140625
 Br1 0.538987 0.411663 0.08631  -0.417209140625
 Br1 0.20112 0.584419 0.0891  -0.417209140625
 Br1 0.875464 0.412208 0.91327  -0.417209140625
 Br1 0.53919 0.085793 0.41210  -0.417209140625
 Br1 0.037116 0.913734 0.58820  -0.417209140625
 Br1 0.875403 0.913235 0.41214  -0.417209140625
 Br1 0.200945 0.088445 0.58540  -0.417209140625
 N1 0.098042 0.376609 0.11035  -0.156573515625
 N1 0.978681 0.388872 0.1226  -0.156573515625
 N1 0.586604 0.62149 0.8889  -0.156573515625
 N1 0.488579 0.611898 0.8788  -0.156573515625
 N1 0.4576 0.390225 0.87644  -0.156573515625
 N1 0.350746 0.378261 0.88728  -0.156573515625
 N1 0.725367 0.610881 0.12295  -0.156573515625
 N1 0.618468 0.620885 0.11154  -0.156573515625
 N1 0.586491 0.888459 0.6225  -0.156573515625
 N1 0.488289 0.879012 0.61269  -0.156573515625
 N1 0.098523 0.109266 0.37627  -0.156573515625
 N1 0.979241 0.121481 0.38837  -0.156573515625
 N1 0.725518 0.122196 0.61128  -0.156573515625
 N1 0.618623 0.110373 0.62203  -0.156573515625
 N1 0.4576 0.876979 0.3900  -0.156573515625
 N1 0.350765 0.887251 0.37833  -0.156573515625
