#======================================================================

# CRYSTAL DATA

#----------------------------------------------------------------------

data_VESTA_phase_1


_pd_phase_name                         MOF
_cell_length_a                         22.08700
_cell_length_b                         17.89200
_cell_length_c                         20.54100
_cell_angle_alpha                      110.25800
_cell_angle_beta                       93.39600
_cell_angle_gamma                      89.00700
_symmetry_space_group_name_H-M         "P 1"
_symmetry_Int_Tables_number            1

loop_
_symmetry_equiv_pos_as_xyz
   "x, y, z"

loop_
   _atom_site_label
   _atom_site_fract_x
   _atom_site_fract_y
   _atom_site_fract_z
 _atom_site_charge
 Zn1 0.097689 0.438133 0.22735  0.93326637931
 Zn1 0.597394 0.43772 0.22694  0.93326637931
 Zn1 0.093153 0.549863 0.15480  0.93326637931
 Zn1 0.593282 0.549748 0.15431  0.93326637931
 Zn1 0.069583 0.937593 0.72224  0.93326637931
 Zn1 0.570392 0.937439 0.7221  0.93326637931
 Zn1 0.063427 0.049902 0.64984  0.93326637931
 Zn1 0.562643 0.049768 0.64952  0.93326637931
 Zn1 0.402629 0.562313 0.7730  0.93326637931
 Zn1 0.90278 0.561913 0.77269  0.93326637931
 Zn1 0.407334 0.450323 0.84572  0.93326637931
 Zn1 0.906876 0.450141 0.84518  0.93326637931
 Zn1 0.429626 0.062582 0.27789  0.93326637931
 Zn1 0.930434 0.062442 0.27775  0.93326637931
 Zn1 0.437374 0.950254 0.35047  0.93326637931
 Zn1 0.936591 0.950125 0.35015  0.93326637931
 H1 0.106761 0.216412 0.04619  0.10499262931
 H1 0.607978 0.216559 0.04589  0.10499262931
 H1 0.100528 0.104815 0.93069  0.10499262931
 H1 0.601796 0.104799 0.93048  0.10499262931
 H1 0.067785 0.274055 0.82749  0.10499262931
 H1 0.568247 0.273654 0.82703  0.10499262931
 H1 0.075093 0.385564 0.94223  0.10499262931
 H1 0.575538 0.385332 0.941  0.10499262931
 H1 0.289647 0.392626 0.23156  0.10499262931
 H1 0.790118 0.393427 0.23279  0.10499262931
 H1 0.403333 0.390794 0.23297  0.10499262931
 H1 0.903814 0.392185 0.23421  0.10499262931
 H1 0.399832 0.584057 0.15439  0.10499262931
 H1 0.89942 0.584023 0.15383  0.10499262931
 H1 0.28615 0.587459 0.15498  0.10499262931
 H1 0.785743 0.586921 0.15451  0.10499262931
 H1 0.087232 0.604232 0.43541  0.10499262931
 H1 0.586627 0.604071 0.43420  0.10499262931
 H1 0.072731 0.716432 0.54849  0.10499262931
 H1 0.57232 0.715822 0.54758  0.10499262931
 H1 0.06428 0.882645 0.43956  0.10499262931
 H1 0.564537 0.883036 0.4396  0.10499262931
 H1 0.076064 0.771405 0.3275  0.10499262931
 H1 0.576447 0.77232 0.32738  0.10499262931
 H1 0.093963 0.532965 0.00480  0.10499262931
 H1 0.593964 0.533062 0.00420  0.10499262931
 H1 0.075474 0.618387 0.93258  0.10499262931
 H1 0.574964 0.618642 0.93218  0.10499262931
 H1 0.060403 0.818867 0.12396  0.10499262931
 H1 0.559721 0.818724 0.12378  0.10499262931
 H1 0.07984 0.724781 0.18778  0.10499262931
 H1 0.579717 0.724514 0.18739  0.10499262931
 H1 0.111358 0.866375 0.94136  0.10499262931
 H1 0.610684 0.866361 0.94155  0.10499262931
 H1 0.125911 0.936963 0.8576  0.10499262931
 H1 0.625912 0.936866 0.85790  0.10499262931
 H1 0.00346 0.788761 0.71128  0.10499262931
 H1 0.503601 0.789119 0.7110  0.10499262931
 H1 0.482847 0.712203 0.78809  0.10499262931
 H1 0.98337 0.711766 0.78845  0.10499262931
 H1 0.266496 0.907111 0.74060  0.10499262931
 H1 0.766468 0.90715 0.73975  0.10499262931
 H1 0.380655 0.91279 0.74115  0.10499262931
 H1 0.880612 0.912999 0.74069  0.10499262931
 H1 0.365494 0.077572 0.6310  0.10499262931
 H1 0.865729 0.077088 0.62992  0.10499262931
 H1 0.252055 0.073359 0.63238  0.10499262931
 H1 0.75227 0.072706 0.63082  0.10499262931
 H1 0.066808 0.03766 0.49956  0.10499262931
 H1 0.566364 0.037518 0.49920  0.10499262931
 H1 0.09472 0.125586 0.43517  0.10499262931
 H1 0.594941 0.12522 0.43488  0.10499262931
 H1 0.108098 0.320239 0.63282  0.10499262931
 H1 0.608896 0.319729 0.63260  0.10499262931
 H1 0.079238 0.223728 0.68858  0.10499262931
 H1 0.579381 0.223447 0.68828  0.10499262931
 H1 0.20556 0.234397 0.31854  0.10499262931
 H1 0.705733 0.234059 0.31802  0.10499262931
 H1 0.181253 0.306539 0.23598  0.10499262931
 H1 0.681247 0.306434 0.23568  0.10499262931
 H1 0.034941 0.420699 0.34550  0.10499262931
 H1 0.535345 0.420815 0.34589  0.10499262931
 H1 0.052894 0.354023 0.4339  0.10499262931
 H1 0.553564 0.35403 0.43422  0.10499262931
 H2 0.023699 0.824001 0.01297  0.30210137931
 H2 0.52265 0.823958 0.0129  0.30210137931
 H2 0.992282 0.709556 0.90348  0.30210137931
 H2 0.491397 0.70973 0.90322  0.30210137931
 H2 0.145263 0.332444 0.52984  0.30210137931
 H2 0.646216 0.33177 0.52963  0.30210137931
 H2 0.185198 0.221442 0.42725  0.30210137931
 H2 0.685631 0.220829 0.42667  0.30210137931
 H1 0.392035 0.78348 0.95410  0.10499262931
 H1 0.893281 0.783616 0.95380  0.10499262931
 H1 0.39821 0.895237 0.06951  0.10499262931
 H1 0.899501 0.895212 0.06930  0.10499262931
 H1 0.431778 0.726377 0.17296  0.10499262931
 H1 0.932243 0.72598 0.1725  0.10499262931
 H1 0.424502 0.614706 0.05829  0.10499262931
 H1 0.924945 0.614467 0.05777  0.10499262931
 H1 0.210062 0.606512 0.76726  0.10499262931
 H1 0.710506 0.607463 0.76837  0.10499262931
 H1 0.096372 0.607752 0.7658  0.10499262931
 H1 0.596813 0.609304 0.7669  0.10499262931
 H1 0.10076 0.415909 0.84620  0.10499262931
 H1 0.600316 0.416059 0.84557  0.10499262931
 H1 0.214445 0.413018 0.84553  0.10499262931
 H1 0.713989 0.412653 0.84498  0.10499262931
 H1 0.413392 0.395946 0.56577  0.10499262931
 H1 0.912797 0.395799 0.56461  0.10499262931
 H1 0.4277 0.284191 0.45239  0.10499262931
 H1 0.927281 0.283606 0.45152  0.10499262931
 H1 0.435476 0.11698 0.5603  0.10499262931
 H1 0.935731 0.117373 0.56043  0.10499262931
 H1 0.423572 0.227701 0.67260  0.10499262931
 H1 0.923956 0.228605 0.67248  0.10499262931
 H1 0.406185 0.466973 0.99579  0.10499262931
 H1 0.906093 0.467066 0.99520  0.10499262931
 H1 0.425039 0.381368 0.06781  0.10499262931
 H1 0.924583 0.38165 0.06743  0.10499262931
 H1 0.440262 0.181268 0.87622  0.10499262931
 H1 0.93964 0.181159 0.87605  0.10499262931
 H1 0.420411 0.275506 0.81260  0.10499262931
 H1 0.920207 0.275242 0.81222  0.10499262931
 H1 0.389343 0.133662 0.05844  0.10499262931
 H1 0.888697 0.133672 0.05864  0.10499262931
 H1 0.374113 0.063154 0.14209  0.10499262931
 H1 0.874126 0.063085 0.14239  0.10499262931
 H1 0.49642 0.210905 0.2889  0.10499262931
 H1 0.996566 0.211281 0.28874  0.10499262931
 H1 0.01667 0.288285 0.21157  0.10499262931
 H1 0.517171 0.287827 0.2119  0.10499262931
 H1 0.233548 0.092869 0.26024  0.10499262931
 H1 0.733519 0.092909 0.25939  0.10499262931
 H1 0.119404 0.087025 0.25930  0.10499262931
 H1 0.619361 0.087221 0.25884  0.10499262931
 H1 0.134286 0.922941 0.37008  0.10499262931
 H1 0.634529 0.922449 0.36891  0.10499262931
 H1 0.247746 0.927322 0.36917  0.10499262931
 H1 0.747967 0.926671 0.36762  0.10499262931
 H1 0.433656 0.962501 0.50079  0.10499262931
 H1 0.933207 0.962368 0.50044  0.10499262931
 H1 0.405082 0.874795 0.56510  0.10499262931
 H1 0.905294 0.874444 0.56484  0.10499262931
 H1 0.391134 0.680288 0.36739  0.10499262931
 H1 0.891923 0.679789 0.36718  0.10499262931
 H1 0.420643 0.776575 0.31171  0.10499262931
 H1 0.920782 0.776297 0.31143  0.10499262931
 H1 0.294299 0.765948 0.68197  0.10499262931
 H1 0.794524 0.765535 0.68150  0.10499262931
 H1 0.318804 0.69358 0.76431  0.10499262931
 H1 0.818937 0.693404 0.76406  0.10499262931
 H1 0.464706 0.579219 0.65409  0.10499262931
 H1 0.965228 0.579352 0.6544  0.10499262931
 H1 0.446467 0.645996 0.56575  0.10499262931
 H1 0.947162 0.646002 0.56598  0.10499262931
 H2 0.477363 0.176051 0.98709  0.30210137931
 H2 0.97636 0.176038 0.98704  0.30210137931
 H2 0.508616 0.2903 0.09677  0.30210137931
 H2 0.0 0.290483 0.09653  0.30210137931
 H2 0.353812 0.668243 0.47035  0.30210137931
 H2 0.854756 0.667579 0.47017  0.30210137931
 H2 0.314392 0.779181 0.57331  0.30210137931
 H2 0.814827 0.778551 0.57279  0.30210137931
 C1 0.091338 0.374165 0.07016  0.68292512931
 C1 0.592209 0.374235 0.06961  0.68292512931
 C2 0.090845 0.307759 0.00118  -0.12188987069
 C2 0.591706 0.307706 0.00072  -0.12188987069
 C3 0.098301 0.228503 0.99796  -0.145612787356
 C3 0.599377 0.228523 0.99762  -0.145612787356
 C3 0.094785 0.166633 0.93410  -0.145612787356
 C3 0.595879 0.166569 0.93381  -0.145612787356
 C2 0.083362 0.182739 0.87230  -0.12188987069
 C2 0.584278 0.18253 0.87198  -0.12188987069
 C3 0.077202 0.262052 0.87557  -0.145612787356
 C3 0.577843 0.261777 0.87514  -0.145612787356
 C3 0.081188 0.324005 0.93933  -0.145612787356
 C3 0.581818 0.323813 0.9388  -0.145612787356
 C1 0.076442 0.115165 0.80377  0.68292512931
 C1 0.577374 0.11486 0.80352  0.68292512931
 C1 0.212952 0.491342 0.19224  0.68292512931
 C1 0.712991 0.491057 0.19260  0.68292512931
 C2 0.281108 0.490135 0.19324  -0.12188987069
 C2 0.781149 0.490263 0.19365  -0.12188987069
 C3 0.314259 0.434701 0.21520  -0.145612787356
 C3 0.814549 0.435365 0.21609  -0.145612787356
 C3 0.377344 0.433671 0.21596  -0.145612787356
 C3 0.877643 0.434667 0.21685  -0.145612787356
 C2 0.408462 0.487442 0.19373  -0.12188987069
 C2 0.908496 0.488215 0.19412  -0.12188987069
 C3 0.375272 0.542715 0.17160  -0.145612787356
 C3 0.875043 0.542912 0.17149  -0.145612787356
 C3 0.312245 0.544507 0.17177  -0.145612787356
 C3 0.81203 0.544407 0.1716  -0.145612787356
 C1 0.476488 0.485215 0.19273  0.68292512931
 C1 0.976502 0.486503 0.19292  0.68292512931
 C1 0.090666 0.614428 0.30733  0.68292512931
 C1 0.59047 0.615079 0.30636  0.68292512931
 C2 0.082859 0.681104 0.37484  -0.12188987069
 C2 0.582742 0.681465 0.37411  -0.12188987069
 C3 0.081703 0.665537 0.43719  -0.145612787356
 C3 0.58134 0.665503 0.43627  -0.145612787356
 C3 0.073814 0.727468 0.4996  -0.145612787356
 C3 0.573517 0.727198 0.49887  -0.145612787356
 C2 0.068072 0.806198 0.5009  -0.12188987069
 C2 0.567964 0.806098 0.50058  -0.12188987069
 C3 0.06931 0.821684 0.43861  -0.145612787356
 C3 0.569414 0.821962 0.43845  -0.145612787356
 C3 0.076031 0.759654 0.37609  -0.145612787356
 C3 0.576197 0.760199 0.3757  -0.145612787356
 C1 0.062242 0.873634 0.56849  0.68292512931
 C1 0.562037 0.87332 0.56830  0.68292512931
 C4 0.086461 0.596706 0.02889  0.20459387931
 C4 0.586271 0.596748 0.02838  0.20459387931
 C3 0.076098 0.64446 0.98886  -0.145612787356
 C3 0.575622 0.644582 0.98847  -0.145612787356
 C5 0.064735 0.725839 0.02219  0.26473637931
 C5 0.564041 0.725878 0.02191  0.26473637931
 C3 0.068099 0.755975 0.09536  -0.145612787356
 C3 0.567528 0.755884 0.09508  -0.145612787356
 C4 0.078769 0.704085 0.13123  0.20459387931
 C4 0.578497 0.703937 0.13084  0.20459387931
 C5 0.044831 0.783817 0.87232  0.26473637931
 C5 0.544178 0.784032 0.87223  0.26473637931
 C3 0.086572 0.84752 0.8909  -0.145612787356
 C3 0.586065 0.847589 0.89104  -0.145612787356
 C4 0.094971 0.88641 0.84444  0.20459387931
 C4 0.594845 0.886427 0.84458  0.20459387931
 C4 0.026399 0.803778 0.76268  0.20459387931
 C4 0.526347 0.804056 0.76253  0.20459387931
 C3 0.015182 0.761383 0.80549  -0.145612787356
 C3 0.514741 0.761737 0.80530  -0.145612787356
 C1 0.184793 0.98792 0.68699  0.68292512931
 C1 0.68484 0.987454 0.68576  0.68292512931
 C2 0.252787 0.989493 0.68608  -0.12188987069
 C2 0.752853 0.989175 0.68487  -0.12188987069
 C3 0.288959 0.943832 0.71651  -0.145612787356
 C3 0.788984 0.943751 0.71559  -0.145612787356
 C3 0.351933 0.947133 0.71696  -0.145612787356
 C3 0.851953 0.947149 0.7162  -0.145612787356
 C2 0.379796 0.995499 0.68616  -0.12188987069
 C2 0.879927 0.995372 0.68539  -0.12188987069
 C3 0.343564 0.040437 0.65507  -0.145612787356
 C3 0.843757 0.040047 0.65397  -0.145612787356
 C3 0.280664 0.037882 0.65545  -0.145612787356
 C3 0.780821 0.037398 0.65414  -0.145612787356
 C1 0.447779 0.998802 0.68635  0.68292512931
 C1 0.947953 0.998628 0.68600  0.68292512931
 C4 0.076324 0.100609 0.52707  0.20459387931
 C4 0.576148 0.100385 0.5267  0.20459387931
 C3 0.091994 0.149707 0.49127  -0.145612787356
 C3 0.592187 0.149366 0.49098  -0.145612787356
 C5 0.104898 0.230084 0.528  0.26473637931
 C5 0.6054 0.229648 0.52863  0.26473637931
 C3 0.099299 0.258058 0.6012  -0.145612787356
 C3 0.599819 0.257627 0.60096  -0.145612787356
 C4 0.083204 0.204925 0.63259  0.20459387931
 C4 0.583345 0.204619 0.63229  0.20459387931
 C5 0.131329 0.289163 0.38396  0.26473637931
 C5 0.631746 0.288921 0.38379  0.26473637931
 C3 0.167052 0.274837 0.32621  -0.145612787356
 C3 0.667283 0.274606 0.32589  -0.145612787356
 C4 0.153628 0.314369 0.28009  0.20459387931
 C4 0.653753 0.314256 0.2798  0.20459387931
 C4 0.072181 0.378901 0.34191  0.20459387931
 C4 0.572556 0.378934 0.3421  0.20459387931
 C3 0.082201 0.342118 0.39077  -0.145612787356
 C3 0.582715 0.342066 0.39089  -0.145612787356
 C1 0.407875 0.625809 0.93038  0.68292512931
 C1 0.908733 0.625861 0.92984  0.68292512931
 C2 0.40832 0.692335 0.9992  -0.12188987069
 C2 0.909194 0.692269 0.9988  -0.12188987069
 C3 0.400634 0.771516 0.00237  -0.145612787356
 C3 0.901739 0.771525 0.00203  -0.145612787356
 C3 0.404129 0.833467 0.06618  -0.145612787356
 C3 0.905243 0.833395 0.065  -0.145612787356
 C2 0.415736 0.817504 0.12801  -0.12188987069
 C2 0.916666 0.817292 0.12769  -0.12188987069
 C3 0.422177 0.738258 0.12485  -0.145612787356
 C3 0.922825 0.737979 0.12442  -0.145612787356
 C3 0.418209 0.676225 0.06114  -0.145612787356
 C3 0.918848 0.676025 0.06066  -0.145612787356
 C1 0.422643 0.885172 0.19647  0.68292512931
 C1 0.923576 0.884868 0.19623  0.68292512931
 C1 0.287211 0.508945 0.80745  0.68292512931
 C1 0.787215 0.508707 0.80771  0.68292512931
 C2 0.219041 0.509684 0.80640  -0.12188987069
 C2 0.719046 0.509958 0.80670  -0.12188987069
 C3 0.185634 0.564575 0.78396  -0.145612787356
 C3 0.685894 0.565388 0.78473  -0.145612787356
 C3 0.122545 0.565275 0.78320  -0.145612787356
 C3 0.622806 0.566424 0.78397  -0.145612787356
 C2 0.091694 0.511723 0.80592  -0.12188987069
 C2 0.59169 0.512659 0.80621  -0.12188987069
 C3 0.125142 0.457027 0.82856  -0.145612787356
 C3 0.624877 0.457392 0.82835  -0.145612787356
 C3 0.18816 0.455535 0.82836  -0.145612787356
 C3 0.687901 0.455599 0.82818  -0.145612787356
 C1 0.023697 0.513467 0.807  0.68292512931
 C1 0.523677 0.51486 0.80723  0.68292512931
 C1 0.4096 0.384948 0.69362  0.68292512931
 C1 0.909393 0.385589 0.69269  0.68292512931
 C2 0.417274 0.318552 0.62586  -0.12188987069
 C2 0.917165 0.318915 0.62516  -0.12188987069
 C3 0.418675 0.334513 0.56371  -0.145612787356
 C3 0.918316 0.33449 0.56282  -0.145612787356
 C3 0.426497 0.272817 0.50111  -0.145612787356
 C3 0.9262 0.272564 0.50039  -0.145612787356
 C2 0.43205 0.193919 0.49940  -0.12188987069
 C2 0.931937 0.19383 0.49907  -0.12188987069
 C3 0.430596 0.178055 0.56153  -0.145612787356
 C3 0.930703 0.178337 0.56138  -0.145612787356
 C3 0.423818 0.239818 0.62420  -0.145612787356
 C3 0.923983 0.240361 0.6239  -0.145612787356
 C1 0.437979 0.126696 0.43168  0.68292512931
 C1 0.937771 0.126397 0.43151  0.68292512931
 C4 0.41386 0.403282 0.97162  0.20459387931
 C4 0.913595 0.403324 0.97112  0.20459387931
 C3 0.424418 0.355433 0.01152  -0.145612787356
 C3 0.923956 0.355573 0.01114  -0.145612787356
 C5 0.435985 0.274132 0.97808  0.26473637931
 C5 0.935318 0.274194 0.97782  0.26473637931
 C3 0.432502 0.24412 0.90491  -0.145612787356
 C3 0.931948 0.244052 0.90465  -0.145612787356
 C4 0.421623 0.296082 0.86915  0.20459387931
 C4 0.921281 0.29594 0.8687  0.20459387931
 C5 0.455846 0.215992 0.12777  0.26473637931
 C5 0.95522 0.216228 0.12769  0.26473637931
 C3 0.41396 0.152433 0.10896  -0.145612787356
 C3 0.913476 0.152527 0.10906  -0.145612787356
 C4 0.40518 0.113594 0.15542  0.20459387931
 C4 0.905068 0.113637 0.15556  0.20459387931
 C4 0.473676 0.195968 0.2374  0.20459387931
 C4 0.973634 0.196266 0.2373  0.20459387931
 C3 0.485281 0.238288 0.19470  -0.145612787356
 C3 0.984861 0.238664 0.19452  -0.145612787356
 C1 0.315175 0.012568 0.31423  0.68292512931
 C1 0.815226 0.012106 0.31300  0.68292512931
 C2 0.247163 0.010849 0.31513  -0.12188987069
 C2 0.747232 0.010532 0.3139  -0.12188987069
 C3 0.211032 0.056268 0.28440  -0.145612787356
 C3 0.711058 0.056187 0.28348  -0.145612787356
 C3 0.148062 0.052877 0.28374  -0.145612787356
 C3 0.648084 0.052884 0.28303  -0.145612787356
 C2 0.120089 0.004654 0.31461  -0.12188987069
 C2 0.620223 0.004517 0.31383  -0.12188987069
 C3 0.156259 0.959982 0.34603  -0.145612787356
 C3 0.656457 0.959585 0.3449  -0.145612787356
 C3 0.219194 0.962627 0.3458  -0.145612787356
 C3 0.719357 0.962141 0.34454  -0.145612787356
 C1 0.052063 0.001404 0.31400  0.68292512931
 C1 0.55224 0.001213 0.31365  0.68292512931
 C4 0.423872 0.899634 0.47324  0.20459387931
 C4 0.923691 0.899419 0.47294  0.20459387931
 C3 0.407836 0.850651 0.50901  -0.145612787356
 C3 0.90802 0.850322 0.50874  -0.145612787356
 C5 0.394624 0.770369 0.47135  0.26473637931
 C5 0.895115 0.769944 0.47111  0.26473637931
 C3 0.400207 0.742391 0.39903  -0.145612787356
 C3 0.900717 0.74197 0.39879  -0.145612787356
 C4 0.416679 0.795402 0.36769  0.20459387931
 C4 0.916813 0.795102 0.36741  0.20459387931
 C5 0.368286 0.711098 0.61619  0.26473637931
 C5 0.868741 0.710831 0.61604  0.26473637931
 C3 0.332754 0.725409 0.67409  -0.145612787356
 C3 0.833051 0.725122 0.67382  -0.145612787356
 C4 0.346296 0.685764 0.72010  0.20459387931
 C4 0.846537 0.685602 0.7199  0.20459387931
 C4 0.427492 0.621097 0.65788  0.20459387931
 C4 0.927968 0.621129 0.6580  0.20459387931
 C3 0.417322 0.657959 0.6090  -0.145612787356
 C3 0.917885 0.657896 0.60919  -0.145612787356
 N1 0.086862 0.624795 0.09909  -0.35774112069
 N1 0.586754 0.624691 0.09859  -0.35774112069
 N2 0.050184 0.777024 0.98605  -0.24058362069
 N2 0.549197 0.777108 0.98591  -0.24058362069
 N2 0.031866 0.743394 0.91569  -0.24058362069
 N2 0.530944 0.743623 0.91553  -0.24058362069
 N1 0.065318 0.866363 0.78124  -0.35774112069
 N1 0.565447 0.866459 0.78125  -0.35774112069
 N1 0.072423 0.12681 0.59674  -0.35774112069
 N1 0.572176 0.126603 0.59641  -0.35774112069
 N2 0.122635 0.282823 0.49722  -0.24058362069
 N2 0.623387 0.282328 0.4970  -0.24058362069
 N2 0.145033 0.251845 0.43134  -0.24058362069
 N2 0.645517 0.251373 0.43100  -0.24058362069
 N1 0.107095 0.366315 0.2871  -0.35774112069
 N1 0.607267 0.36631 0.28721  -0.35774112069
 N1 0.413453 0.375345 0.90141  -0.35774112069
 N1 0.913195 0.375232 0.90091  -0.35774112069
 N2 0.450816 0.222902 0.01409  -0.24058362069
 N2 0.949875 0.223015 0.01396  -0.24058362069
 N2 0.469077 0.256395 0.08446  -0.24058362069
 N2 0.968193 0.256648 0.08432  -0.24058362069
 N1 0.434576 0.133564 0.21875  -0.35774112069
 N1 0.934714 0.133682 0.21876  -0.35774112069
 N1 0.427844 0.873418 0.40358  -0.35774112069
 N1 0.927592 0.873218 0.40326  -0.35774112069
 N2 0.376637 0.717688 0.50297  -0.24058362069
 N2 0.877378 0.717203 0.5027  -0.24058362069
 N2 0.354507 0.748641 0.56898  -0.24058362069
 N2 0.854999 0.74816 0.56868  -0.24058362069
 N1 0.392789 0.633722 0.7127  -0.35774112069
 N1 0.893104 0.633701 0.71282  -0.35774112069
 O1 0.080284 0.355174 0.12312  -0.59982549569
 O1 0.581302 0.35532 0.12266  -0.59982549569
 O1 0.101573 0.443924 0.07099  -0.59982549569
 O1 0.60227 0.443957 0.07026  -0.59982549569
 O1 0.08544 0.045286 0.80510  -0.59982549569
 O1 0.586403 0.04502 0.80493  -0.59982549569
 O1 0.06134 0.13333 0.75031  -0.59982549569
 O1 0.562271 0.132943 0.75002  -0.59982549569
 O1 0.187229 0.436807 0.20795  -0.59982549569
 O1 0.687572 0.436652 0.20872  -0.59982549569
 O1 0.186074 0.546039 0.17582  -0.59982549569
 O1 0.685833 0.545312 0.17576  -0.59982549569
 O1 0.500952 0.520055 0.15650  -0.59982549569
 O1 0.0 0.520531 0.1557  -0.59982549569
 O1 0.504304 0.447351 0.22803  -0.59982549569
 O1 0.0 0.449994 0.22903  -0.59982549569
 O1 0.10406 0.546004 0.3100  -0.59982549569
 O1 0.602683 0.546152 0.30869  -0.59982549569
 O1 0.082805 0.631561 0.25212  -0.59982549569
 O1 0.583759 0.632858 0.2514  -0.59982549569
 O1 0.054038 0.855827 0.62230  -0.59982549569
 O1 0.554887 0.855278 0.62221  -0.59982549569
 O1 0.066653 0.943754 0.56665  -0.59982549569
 O1 0.565311 0.943571 0.56647  -0.59982549569
 O1 0.161397 0.934792 0.70621  -0.59982549569
 O1 0.661701 0.93464 0.70562  -0.59982549569
 O1 0.156186 0.040171 0.66857  -0.59982549569
 O1 0.655963 0.039095 0.66681  -0.59982549569
 O1 0.477794 0.964321 0.72253  -0.59982549569
 O1 0.977554 0.964602 0.72288  -0.59982549569
 O1 0.469841 0.035474 0.64980  -0.59982549569
 O1 0.970523 0.034625 0.64924  -0.59982549569
 O1 0.418755 0.644744 0.87733  -0.59982549569
 O1 0.919824 0.644861 0.87689  -0.59982549569
 O1 0.397913 0.556066 0.92973  -0.59982549569
 O1 0.89849 0.556102 0.92899  -0.59982549569
 O1 0.41361 0.955012 0.19506  -0.59982549569
 O1 0.91458 0.954746 0.19489  -0.59982549569
 O1 0.437746 0.867088 0.24997  -0.59982549569
 O1 0.938678 0.866703 0.2496  -0.59982549569
 O1 0.312522 0.563392 0.79126  -0.59982549569
 O1 0.813014 0.563143 0.79195  -0.59982549569
 O1 0.314461 0.454798 0.82433  -0.59982549569
 O1 0.81401 0.453999 0.82420  -0.59982549569
 O1 0.999732 0.479469 0.8442  -0.59982549569
 O1 0.499305 0.479986 0.84352  -0.59982549569
 O1 0.995396 0.550027 0.77096  -0.59982549569
 O1 0.495766 0.552667 0.77197  -0.59982549569
 O1 0.397372 0.453873 0.69130  -0.59982549569
 O1 0.896055 0.454039 0.68997  -0.59982549569
 O1 0.416382 0.367172 0.74857  -0.59982549569
 O1 0.917239 0.36843 0.74789  -0.59982549569
 O1 0.445134 0.144736 0.37778  -0.59982549569
 O1 0.94597 0.144208 0.37770  -0.59982549569
 O1 0.434707 0.056446 0.43352  -0.59982549569
 O1 0.933363 0.056276 0.43334  -0.59982549569
 O1 0.338315 0.065387 0.2943  -0.59982549569
 O1 0.83862 0.065236 0.29379  -0.59982549569
 O1 0.344052 0.960929 0.33318  -0.59982549569
 O1 0.843835 0.95986 0.33143  -0.59982549569
 O1 0.022461 0.035427 0.27712  -0.59982549569
 O1 0.522225 0.035686 0.2774  -0.59982549569
 O1 0.029493 0.9654 0.35075  -0.59982549569
 O1 0.530179 0.964541 0.35019  -0.59982549569
