#======================================================================

# CRYSTAL DATA

#----------------------------------------------------------------------

data_VESTA_phase_1


_pd_phase_name                         MOF
_cell_length_a                         13.69000
_cell_length_b                         16.70100
_cell_length_c                         16.70100
_cell_angle_alpha                      87.61300
_cell_angle_beta                       78.27100
_cell_angle_gamma                      78.21400
_symmetry_space_group_name_H-M         "P 1"
_symmetry_Int_Tables_number            1

loop_
_symmetry_equiv_pos_as_xyz
   "x, y, z"

loop_
   _atom_site_label
   _atom_site_fract_x
   _atom_site_fract_y
   _atom_site_fract_z
 _atom_site_charge
 Ag1 0.456593 0.892887 0.38036  0.418638085106
 Ag1 0.956601 0.892887 0.38036  0.418638085106
 Ag1 0.092669 0.606655 0.11965  0.418638085106
 Ag1 0.592677 0.606655 0.11965  0.418638085106
 Ag1 0.146469 0.119701 0.8929  0.418638085106
 Ag1 0.646478 0.119701 0.8929  0.418638085106
 Ag1 0.152943 0.380389 0.60681  0.418638085106
 Ag1 0.652951 0.380389 0.60681  0.418638085106
 Ag1 0.043424 0.107109 0.61961  0.418638085106
 Ag1 0.543433 0.107109 0.61961  0.418638085106
 Ag1 0.407348 0.393343 0.88031  0.418638085106
 Ag1 0.907357 0.393343 0.88031  0.418638085106
 Ag1 0.353547 0.880297 0.10702  0.418638085106
 Ag1 0.853555 0.880296 0.10702  0.418638085106
 Ag1 0.347075 0.619608 0.39316  0.418638085106
 Ag1 0.847082 0.619608 0.39316  0.418638085106
 H1 0.360661 0.777808 0.64022  0.0929820623791
 H1 0.86067 0.777808 0.64022  0.0929820623791
 H1 0.296346 0.873078 0.60867  0.0929820623791
 H1 0.796355 0.873078 0.60867  0.0929820623791
 H1 0.476389 0.866087 0.63434  0.0929820623791
 H1 0.976398 0.866087 0.63434  0.0929820623791
 H1 0.025082 0.797666 0.55067  0.0929820623791
 H1 0.525089 0.797667 0.55067  0.0929820623791
 H1 0.323449 0.986749 0.54940  0.0929820623791
 H1 0.823458 0.986749 0.54940  0.0929820623791
 H1 0.408789 0.009481 0.60891  0.0929820623791
 H1 0.908798 0.009481 0.60891  0.0929820623791
 H1 0.089241 0.949217 0.57294  0.0929820623791
 H1 0.589248 0.949217 0.57294  0.0929820623791
 H1 0.135183 0.879292 0.49038  0.0929820623791
 H1 0.635191 0.879292 0.49038  0.0929820623791
 H1 0.111379 0.719486 0.39469  0.0929820623791
 H1 0.611387 0.719486 0.39469  0.0929820623791
 H1 0.18762 0.795799 0.39068  0.0929820623791
 H1 0.687628 0.795799 0.39068  0.0929820623791
 H1 0.016741 0.713191 0.29117  0.0929820623791
 H1 0.516749 0.713192 0.29117  0.0929820623791
 H1 0.068685 0.721865 0.85986  0.0929820623791
 H1 0.568693 0.721866 0.85986  0.0929820623791
 H1 0.036316 0.626591 0.89159  0.0929820623791
 H1 0.536324 0.626592 0.8915  0.0929820623791
 H1 0.225606 0.634007 0.86584  0.0929820623791
 H1 0.725614 0.634008 0.8658  0.0929820623791
 H1 0.19845 0.702329 0.94958  0.0929820623791
 H1 0.698458 0.70233 0.94958  0.0929820623791
 H1 0.091584 0.512616 0.95032  0.0929820623791
 H1 0.591593 0.512617 0.9503  0.0929820623791
 H1 0.21786 0.490517 0.89096  0.0929820623791
 H1 0.717869 0.490519 0.89096  0.0929820623791
 H1 0.34967 0.551284 0.92723  0.0929820623791
 H1 0.849677 0.551285 0.92723  0.0929820623791
 H1 0.319375 0.621068 0.  0.0929820623791
 H1 0.819383 0.621068 0.  0.0929820623791
 H1 0.168193 0.780475 0.10526  0.0929820623791
 H1 0.6682 0.780476 0.10526  0.0929820623791
 H1 0.280458 0.704161 0.10937  0.0929820623791
 H1 0.780466 0.70416 0.10937  0.0929820623791
 H1 0.018946 0.786756 0.20862  0.0929820623791
 H1 0.518954 0.786757 0.20862  0.0929820623791
 H1 0.179904 0.85985 0.77785  0.0929820623791
 H1 0.679912 0.85985 0.77785  0.0929820623791
 H1 0.100065 0.891312 0.87314  0.0929820623791
 H1 0.600073 0.891311 0.8731  0.0929820623791
 H1 0.292872 0.865769 0.86599  0.0929820623791
 H1 0.79288 0.865768 0.86599  0.0929820623791
 H1 0.299741 0.94952 0.79765  0.0929820623791
 H1 0.799749 0.94952 0.79765  0.0929820623791
 H1 0.097995 0.950487 0.98690  0.0929820623791
 H1 0.598003 0.950486 0.98689  0.0929820623791
 H1 0.213088 0.891025 0.00943  0.0929820623791
 H1 0.713096 0.891024 0.00943  0.0929820623791
 H1 0.375376 0.92712 0.94905  0.0929820623791
 H1 0.875384 0.92712 0.94905  0.0929820623791
 H1 0.38005 0.0 0.87920  0.0929820623791
 H1 0.880058 0.0 0.87920  0.0929820623791
 H1 0.308618 0.105291 0.71946  0.0929820623791
 H1 0.808626 0.105291 0.71946  0.0929820623791
 H1 0.382859 0.109323 0.79582  0.0929820623791
 H1 0.882867 0.109323 0.79582  0.0929820623791
 H1 0.16245 0.208765 0.71310  0.0929820623791
 H1 0.662457 0.208765 0.71310  0.0929820623791
 H1 0.999854 0.640268 0.72198  0.0929820623791
 H1 0.499862 0.640268 0.72198  0.0929820623791
 H1 0.482979 0.608558 0.62678  0.0929820623791
 H1 0.982987 0.608557 0.62678  0.0929820623791
 H1 0.159499 0.634386 0.63378  0.0929820623791
 H1 0.659506 0.634386 0.63378  0.0929820623791
 H1 0.174293 0.550708 0.7022  0.0929820623791
 H1 0.674301 0.550708 0.70222  0.0929820623791
 H1 0.066851 0.549588 0.5130  0.0929820623791
 H1 0.566858 0.549588 0.51302  0.0929820623791
 H1 0.163537 0.608997 0.49044  0.0929820623791
 H1 0.663544 0.608998 0.49044  0.0929820623791
 H1 0.313872 0.572873 0.55087  0.0929820623791
 H1 0.81388 0.572873 0.55087  0.0929820623791
 H1 0.324977 0.490272 0.62078  0.0929820623791
 H1 0.824984 0.490272 0.62078  0.0929820623791
 H1 0.221341 0.394771 0.78039  0.0929820623791
 H1 0.72135 0.394771 0.78039  0.0929820623791
 H1 0.335604 0.390709 0.70416  0.0929820623791
 H1 0.835612 0.390709 0.70416  0.0929820623791
 H1 0.123603 0.291325 0.78664  0.0929820623791
 H1 0.623612 0.291325 0.78664  0.0929820623791
 H1 0.139355 0.222188 0.3597  0.0929820623791
 H1 0.639364 0.222188 0.3597  0.0929820623791
 H1 0.20367 0.126918 0.39130  0.0929820623791
 H1 0.703679 0.126918 0.39130  0.0929820623791
 H1 0.023628 0.133909 0.36563  0.0929820623791
 H1 0.523636 0.133908 0.36563  0.0929820623791
 H1 0.474936 0.202329 0.44930  0.0929820623791
 H1 0.974944 0.202329 0.44930  0.0929820623791
 H1 0.176568 0.013247 0.45057  0.0929820623791
 H1 0.676575 0.013246 0.45057  0.0929820623791
 H1 0.091227 0.990515 0.39106  0.0929820623791
 H1 0.591235 0.990515 0.39106  0.0929820623791
 H1 0.410778 0.050779 0.42703  0.0929820623791
 H1 0.910785 0.050779 0.42703  0.0929820623791
 H1 0.364834 0.120704 0.50959  0.0929820623791
 H1 0.864842 0.120704 0.50959  0.0929820623791
 H1 0.388639 0.280511 0.60528  0.0929820623791
 H1 0.888646 0.28051 0.60528  0.0929820623791
 H1 0.312397 0.204197 0.6092  0.0929820623791
 H1 0.812405 0.204197 0.6092  0.0929820623791
 H1 0.483276 0.286806 0.70880  0.0929820623791
 H1 0.983284 0.286805 0.70880  0.0929820623791
 H1 0.431333 0.278132 0.14011  0.0929820623791
 H1 0.931339 0.278132 0.14011  0.0929820623791
 H1 0.463702 0.373406 0.10838  0.0929820623791
 H1 0.963708 0.373406 0.10838  0.0929820623791
 H1 0.274412 0.365991 0.13413  0.0929820623791
 H1 0.774418 0.36599 0.13413  0.0929820623791
 H1 0.301567 0.297668 0.0503  0.0929820623791
 H1 0.801574 0.297668 0.05038  0.0929820623791
 H1 0.408432 0.487381 0.04965  0.0929820623791
 H1 0.90844 0.487381 0.04965  0.0929820623791
 H1 0.282157 0.509479 0.10901  0.0929820623791
 H1 0.782165 0.509479 0.10901  0.0929820623791
 H1 0.150349 0.448713 0.07274  0.0929820623791
 H1 0.650356 0.448713 0.07274  0.0929820623791
 H1 0.180642 0.37893 0.99005  0.0929820623791
 H1 0.68065 0.37893 0.99005  0.0929820623791
 H1 0.331826 0.219521 0.89470  0.0929820623791
 H1 0.831834 0.219521 0.89470  0.0929820623791
 H1 0.219559 0.295837 0.89060  0.0929820623791
 H1 0.719568 0.295837 0.89060  0.0929820623791
 H1 0.48107 0.21324 0.79135  0.0929820623791
 H1 0.981079 0.21324 0.79135  0.0929820623791
 H1 0.320115 0.140147 0.22212  0.0929820623791
 H1 0.82012 0.140147 0.22212  0.0929820623791
 H1 0.399953 0.108686 0.12683  0.0929820623791
 H1 0.899959 0.108687 0.12683  0.0929820623791
 H1 0.207146 0.13423 0.13398  0.0929820623791
 H1 0.707152 0.134228 0.13398  0.0929820623791
 H1 0.200277 0.050477 0.20232  0.0929820623791
 H1 0.700284 0.050476 0.20232  0.0929820623791
 H1 0.402023 0.049512 0.01307  0.0929820623791
 H1 0.90203 0.049512 0.01307  0.0929820623791
 H1 0.286929 0.108973 0.9905  0.0929820623791
 H1 0.786936 0.108973 0.99054  0.0929820623791
 H1 0.124641 0.072878 0.05091  0.0929820623791
 H1 0.624648 0.072877 0.05091  0.0929820623791
 H1 0.119967 0.990236 0.12077  0.0929820623791
 H1 0.619974 0.990235 0.1207  0.0929820623791
 H1 0.191398 0.894706 0.28051  0.0929820623791
 H1 0.691407 0.894706 0.28051  0.0929820623791
 H1 0.117158 0.890674 0.20415  0.0929820623791
 H1 0.617166 0.890674 0.20415  0.0929820623791
 H1 0.337569 0.791231 0.28687  0.0929820623791
 H1 0.837576 0.791231 0.28687  0.0929820623791
 H1 0.500165 0.359729 0.27799  0.0929820623791
 H1 0.0 0.359729 0.27799  0.0929820623791
 H1 0.017039 0.391439 0.37318  0.0929820623791
 H1 0.517048 0.391439 0.37318  0.0929820623791
 H1 0.340521 0.365609 0.3661  0.0929820623791
 H1 0.840527 0.36561 0.3661  0.0929820623791
 H1 0.325726 0.449288 0.29775  0.0929820623791
 H1 0.825733 0.449289 0.29775  0.0929820623791
 H1 0.433168 0.450408 0.48695  0.0929820623791
 H1 0.933176 0.450408 0.48695  0.0929820623791
 H1 0.336482 0.390998 0.50953  0.0929820623791
 H1 0.836489 0.390999 0.50953  0.0929820623791
 H1 0.186145 0.427123 0.44910  0.0929820623791
 H1 0.686153 0.427124 0.44910  0.0929820623791
 H1 0.175042 0.509724 0.37918  0.0929820623791
 H1 0.675049 0.509724 0.37918  0.0929820623791
 H1 0.278675 0.605225 0.21958  0.0929820623791
 H1 0.778683 0.605225 0.21958  0.0929820623791
 H1 0.164414 0.609287 0.29581  0.0929820623791
 H1 0.664422 0.609288 0.29581  0.0929820623791
 H1 0.376414 0.708673 0.21333  0.0929820623791
 H1 0.876422 0.708672 0.21333  0.0929820623791
 C1 0.361396 0.822421 0.58991  -0.458671914894
 C1 0.861405 0.82242 0.58991  -0.458671914894
 C2 0.46361 0.849396 0.57440  0.011804751773
 C2 0.963619 0.849396 0.57440  0.011804751773
 C2 0.40155 0.995044 0.54636  0.011804751773
 C2 0.901559 0.995044 0.54636  0.011804751773
 C2 0.079094 0.934778 0.51124  0.011804751773
 C2 0.579102 0.934778 0.51124  0.011804751773
 C3 0.15952 0.755758 0.35429  0.065247251773
 C3 0.659528 0.755759 0.35429  0.065247251773
 C1 0.066721 0.677344 0.91025  -0.458671914894
 C1 0.566729 0.677345 0.91025  -0.458671914894
 C2 0.174708 0.65054 0.92579  0.011804751773
 C2 0.674716 0.650541 0.92579  0.011804751773
 C2 0.172233 0.504693 0.95349  0.011804751773
 C2 0.672242 0.504694 0.95349  0.011804751773
 C2 0.301644 0.565492 0.98894  0.011804751773
 C2 0.801652 0.565492 0.98894  0.011804751773
 C3 0.214301 0.744193 0.14570  0.065247251773
 C3 0.714309 0.744193 0.14570  0.065247251773
 C1 0.155629 0.910156 0.82246  -0.458671914894
 C1 0.655637 0.910156 0.82246  -0.458671914894
 C2 0.250184 0.925728 0.8493  0.011804751773
 C2 0.750192 0.925728 0.8493  0.011804751773
 C2 0.174619 0.953585 0.99510  0.011804751773
 C2 0.674627 0.953584 0.99510  0.011804751773
 C2 0.334482 0.988845 0.93469  0.011804751773
 C2 0.83449 0.988845 0.93469  0.011804751773
 C3 0.336633 0.145704 0.75576  0.065247251773
 C3 0.836641 0.145705 0.75576  0.065247251773
 C1 0.022869 0.589893 0.67745  -0.458671914894
 C1 0.522876 0.589893 0.67745  -0.458671914894
 C2 0.138504 0.574426 0.6504  0.011804751773
 C2 0.638512 0.574426 0.6504  0.011804751773
 C2 0.149088 0.546459 0.50483  0.011804751773
 C2 0.649095 0.546459 0.50483  0.011804751773
 C2 0.296548 0.511172 0.56527  0.011804751773
 C2 0.796556 0.511172 0.56527  0.011804751773
 C3 0.287562 0.354345 0.74417  0.065247251773
 C3 0.78757 0.354344 0.74417  0.065247251773
 C1 0.138621 0.177576 0.41006  -0.458671914894
 C1 0.638629 0.177575 0.41006  -0.458671914894
 C2 0.036407 0.1506 0.42557  0.011804751773
 C2 0.536415 0.150599 0.42557  0.011804751773
 C2 0.098466 0.0 0.45361  0.011804751773
 C2 0.598474 0.0 0.45361  0.011804751773
 C2 0.420924 0.065218 0.48873  0.011804751773
 C2 0.920932 0.065218 0.48873  0.011804751773
 C3 0.340498 0.244238 0.64567  0.065247251773
 C3 0.840505 0.244238 0.64567  0.065247251773
 C1 0.433297 0.322652 0.0897  -0.458671914894
 C1 0.933304 0.322653 0.08971  -0.458671914894
 C2 0.32531 0.349457 0.07418  0.011804751773
 C2 0.825317 0.349457 0.07418  0.011804751773
 C2 0.327783 0.495303 0.0464  0.011804751773
 C2 0.827792 0.495304 0.04647  0.011804751773
 C2 0.198374 0.434505 0.0110  0.011804751773
 C2 0.698381 0.434506 0.01102  0.011804751773
 C3 0.285716 0.255804 0.85427  0.065247251773
 C3 0.785724 0.255804 0.85427  0.065247251773
 C1 0.344389 0.089842 0.17751  -0.458671914894
 C1 0.844395 0.089842 0.17751  -0.458671914894
 C2 0.249834 0.07427 0.15059  0.011804751773
 C2 0.74984 0.074269 0.15059  0.011804751773
 C2 0.325398 0.046413 0.  0.011804751773
 C2 0.825405 0.046413 0.  0.011804751773
 C2 0.165535 0.011153 0.06528  0.011804751773
 C2 0.665542 0.011152 0.06528  0.011804751773
 C3 0.163384 0.854291 0.2442  0.065247251773
 C3 0.663392 0.854292 0.24421  0.065247251773
 C1 0.47715 0.410103 0.32252  -0.458671914894
 C1 0.977157 0.410103 0.32252  -0.458671914894
 C2 0.361515 0.42557 0.34948  0.011804751773
 C2 0.861522 0.42557 0.34948  0.011804751773
 C2 0.350931 0.453537 0.49514  0.011804751773
 C2 0.850938 0.453537 0.49514  0.011804751773
 C2 0.20347 0.488824 0.43470  0.011804751773
 C2 0.703477 0.488825 0.43470  0.011804751773
 C3 0.212455 0.645653 0.25580  0.065247251773
 C3 0.712463 0.645653 0.25580  0.065247251773
 C3 0.063271 0.749972 0.24992  0.065247251773
 C3 0.563278 0.749973 0.24992  0.065247251773
 C3 0.188452 0.250036 0.749  0.065247251773
 C3 0.68846 0.250036 0.749  0.065247251773
 C3 0.436748 0.250024 0.75005  0.065247251773
 C3 0.936755 0.250024 0.75005  0.065247251773
 C3 0.311564 0.749961 0.25007  0.065247251773
 C3 0.811573 0.749961 0.25007  0.065247251773
 S1 0.330741 0.77056 0.50825  1.35635808511
 S1 0.830749 0.770559 0.50825  1.35635808511
 S1 0.469618 0.729364 0.99178  1.35635808511
 S1 0.969626 0.729364 0.99178  1.35635808511
 S1 0.084069 0.991743 0.77064  1.35635808511
 S1 0.584077 0.991743 0.7706  1.35635808511
 S1 0.466622 0.50823 0.72945  1.35635808511
 S1 0.966631 0.50823 0.72945  1.35635808511
 S1 0.169276 0.229437 0.49171  1.35635808511
 S1 0.669284 0.229437 0.49171  1.35635808511
 S1 0.030399 0.270633 0.00818  1.35635808511
 S1 0.530407 0.270633 0.00818  1.35635808511
 S1 0.41595 0.008254 0.22933  1.35635808511
 S1 0.915956 0.008254 0.22933  1.35635808511
 S1 0.033395 0.491767 0.2705  1.35635808511
 S1 0.533404 0.491767 0.2705  1.35635808511
 N1 0.474996 0.919001 0.51714  -0.239240664894
 N1 0.975005 0.919001 0.51714  -0.239240664894
 N1 0.098038 0.806 0.29978  -0.239240664894
 N1 0.598046 0.806 0.29978  -0.239240664894
 N1 0.192642 0.580887 0.98295  -0.239240664894
 N1 0.692649 0.580888 0.98295  -0.239240664894
 N1 0.150745 0.693944 0.20014  -0.239240664894
 N1 0.650753 0.693944 0.20014  -0.239240664894
 N1 0.23325 0.982924 0.91901  -0.239240664894
 N1 0.733259 0.982923 0.91901  -0.239240664894
 N1 0.248038 0.200186 0.80596  -0.239240664894
 N1 0.748046 0.200185 0.80596  -0.239240664894
 N1 0.184585 0.517156 0.58092  -0.239240664894
 N1 0.684592 0.517157 0.58092  -0.239240664894
 N1 0.251108 0.299863 0.69391  -0.239240664894
 N1 0.751116 0.299863 0.69391  -0.239240664894
 N1 0.025021 0.080996 0.48283  -0.239240664894
 N1 0.525029 0.080996 0.48283  -0.239240664894
 N1 0.401979 0.193997 0.70019  -0.239240664894
 N1 0.901987 0.193996 0.70019  -0.239240664894
 N1 0.307377 0.419109 0.01702  -0.239240664894
 N1 0.807384 0.41911 0.01702  -0.239240664894
 N1 0.349272 0.306053 0.79983  -0.239240664894
 N1 0.84928 0.306053 0.79983  -0.239240664894
 N1 0.266766 0.017075 0.08096  -0.239240664894
 N1 0.766774 0.017074 0.08096  -0.239240664894
 N1 0.251979 0.799811 0.19401  -0.239240664894
 N1 0.751987 0.799811 0.19401  -0.239240664894
 N1 0.315433 0.482838 0.41905  -0.239240664894
 N1 0.815441 0.482839 0.41905  -0.239240664894
 N1 0.24891 0.700133 0.30606  -0.239240664894
 N1 0.748917 0.700133 0.30606  -0.239240664894
 O1 0.312062 0.833476 0.44373  -0.661454414894
 O1 0.81207 0.833476 0.44373  -0.661454414894
 O2 0.237936 0.739921 0.54494  -0.671021914894
 O2 0.737944 0.739921 0.54494  -0.671021914894
 O2 0.420987 0.704355 0.47903  -0.671021914894
 O2 0.920995 0.704355 0.47903  -0.671021914894
 O1 0.45001 0.666535 0.05637  -0.661454414894
 O1 0.950018 0.666535 0.05637  -0.661454414894
 O2 0.379857 0.760055 0.95498  -0.671021914894
 O2 0.879865 0.760055 0.95498  -0.671021914894
 O2 0.012405 0.795548 0.02103  -0.671021914894
 O2 0.512413 0.795548 0.02103  -0.671021914894
 O1 0.033348 0.056268 0.83353  -0.661454414894
 O1 0.533357 0.056268 0.83353  -0.661454414894
 O2 0.009467 0.95496 0.74013  -0.671021914894
 O2 0.509474 0.95496 0.74013  -0.671021914894
 O2 0.159529 0.021031 0.70433  -0.671021914894
 O2 0.659537 0.021031 0.70433  -0.671021914894
 O1 0.478989 0.443729 0.66658  -0.661454414894
 O1 0.978997 0.443728 0.66658  -0.661454414894
 O2 0.358607 0.544982 0.76026  -0.671021914894
 O2 0.858616 0.544981 0.76026  -0.671021914894
 O2 0.024219 0.478948 0.79550  -0.671021914894
 O2 0.524227 0.478948 0.7955  -0.671021914894
 O1 0.187955 0.166521 0.55624  -0.661454414894
 O1 0.687963 0.166521 0.55624  -0.661454414894
 O2 0.262081 0.260076 0.45503  -0.671021914894
 O2 0.762089 0.260076 0.45503  -0.671021914894
 O2 0.07903 0.295642 0.52094  -0.671021914894
 O2 0.579038 0.295642 0.52094  -0.671021914894
 O1 0.050007 0.333462 0.94360  -0.661454414894
 O1 0.550015 0.333462 0.94360  -0.661454414894
 O2 0.12016 0.239942 0.04499  -0.671021914894
 O2 0.620168 0.239942 0.04499  -0.671021914894
 O2 0.487612 0.204449 0.97894  -0.671021914894
 O2 0.98762 0.204449 0.97894  -0.671021914894
 O1 0.466669 0.943729 0.16644  -0.661454414894
 O1 0.966677 0.943729 0.16644  -0.661454414894
 O2 0.490552 0.045037 0.25984  -0.671021914894
 O2 0.990559 0.045037 0.25984  -0.671021914894
 O2 0.340489 0.978966 0.29563  -0.671021914894
 O2 0.840496 0.978965 0.29563  -0.671021914894
 O1 0.021028 0.556268 0.33339  -0.661454414894
 O1 0.521036 0.556268 0.33339  -0.661454414894
 O2 0.14141 0.455016 0.23971  -0.671021914894
 O2 0.641419 0.455016 0.23971  -0.671021914894
 O2 0.475799 0.521049 0.20446  -0.671021914894
 O2 0.975806 0.521049 0.20446  -0.671021914894
