#======================================================================

# CRYSTAL DATA

#----------------------------------------------------------------------

data_VESTA_phase_1


_pd_phase_name                         MOF
_cell_length_a                         11.29800
_cell_length_b                         24.39000
_cell_length_c                         22.76500
_cell_angle_alpha                      99.19600
_cell_angle_beta                       89.99000
_cell_angle_gamma                      89.96300
_symmetry_space_group_name_H-M         "P 1"
_symmetry_Int_Tables_number            1

loop_
_symmetry_equiv_pos_as_xyz
   "x, y, z"

loop_
   _atom_site_label
   _atom_site_fract_x
   _atom_site_fract_y
   _atom_site_fract_z
 _atom_site_charge
 Ca1 0.382857 0.317448 0.72328  1.59377125
 Ca1 0.382827 0.817461 0.72330  1.59377125
 Ca1 0.882851 0.317448 0.72328  1.59377125
 Ca1 0.882821 0.817461 0.72330  1.59377125
 Ca1 0.132911 0.43247 0.77676  1.59377125
 Ca1 0.132883 0.932464 0.77679  1.59377125
 Ca1 0.632904 0.43247 0.77676  1.59377125
 Ca1 0.632877 0.932465 0.77679  1.59377125
 Ca1 0.117138 0.182559 0.27669  1.59377125
 Ca1 0.117111 0.682573 0.27671  1.59377125
 Ca1 0.617132 0.182558 0.27669  1.59377125
 Ca1 0.617105 0.682573 0.27671  1.59377125
 Ca1 0.367103 0.067557 0.22319  1.59377125
 Ca1 0.367071 0.56755 0.22322  1.59377125
 Ca1 0.867096 0.067557 0.22319  1.59377125
 Ca1 0.867065 0.56755 0.22322  1.59377125
 H1 0.117715 0.101953 0.61978  0.10043625
 H1 0.117739 0.602001 0.61977  0.10043625
 H1 0.61771 0.101954 0.61978  0.10043625
 H1 0.617735 0.602002 0.61977  0.10043625
 H1 0.070362 0.119495 0.40120  0.10043625
 H1 0.070359 0.619538 0.4012  0.10043625
 H1 0.570344 0.119484 0.40120  0.10043625
 H1 0.570347 0.619533 0.40122  0.10043625
 H1 0.269858 0.213566 0.54315  0.10043625
 H1 0.269869 0.713624 0.54316  0.10043625
 H1 0.769842 0.213554 0.54315  0.10043625
 H1 0.769857 0.713617 0.54316  0.10043625
 H1 0.276799 0.172649 0.67399  0.10043625
 H1 0.276816 0.672682 0.67399  0.10043625
 H1 0.776796 0.172651 0.67399  0.10043625
 H1 0.776811 0.672683 0.67399  0.10043625
 H1 0.233804 0.090307 0.72366  0.10043625
 H1 0.233827 0.590328 0.72364  0.10043625
 H1 0.7338 0.090308 0.72366  0.10043625
 H1 0.733822 0.590328 0.7236  0.10043625
 H1 0.076301 0.022235 0.67276  0.10043625
 H1 0.076326 0.522268 0.67273  0.10043625
 H1 0.576296 0.022235 0.67276  0.10043625
 H1 0.576322 0.522269 0.67273  0.10043625
 H1 0.116808 0.141729 0.50949  0.10043625
 H1 0.116815 0.641781 0.50951  0.10043625
 H1 0.616791 0.141717 0.50950  0.10043625
 H1 0.616803 0.641775 0.50951  0.10043625
 H1 0.224486 0.1908 0.43430  0.10043625
 H1 0.224491 0.690851 0.4343  0.10043625
 H1 0.72447 0.190787 0.43430  0.10043625
 H1 0.72448 0.690845 0.43432  0.10043625
 H1 0.367877 0.14774 0.88002  0.10043625
 H1 0.367832 0.647759 0.88004  0.10043625
 H1 0.86787 0.147741 0.8800  0.10043625
 H1 0.867825 0.647759 0.88004  0.10043625
 H1 0.320358 0.130487 0.09853  0.10043625
 H1 0.320351 0.630465 0.09855  0.10043625
 H1 0.820358 0.130482 0.09853  0.10043625
 H1 0.820336 0.630473 0.09855  0.10043625
 H1 0.020025 0.036341 0.95672  0.10043625
 H1 0.019975 0.536366 0.95674  0.10043625
 H1 0.520014 0.036347 0.95672  0.10043625
 H1 0.519976 0.536356 0.95674  0.10043625
 H1 0.027065 0.077195 0.8258  0.10043625
 H1 0.027029 0.57721 0.82582  0.10043625
 H1 0.52706 0.077195 0.8258  0.10043625
 H1 0.527021 0.57721 0.8258  0.10043625
 H1 0.483981 0.159587 0.77621  0.10043625
 H1 0.483953 0.659598 0.77621  0.10043625
 H1 0.983974 0.159588 0.77621  0.10043625
 H1 0.983948 0.659598 0.77621  0.10043625
 H1 0.326351 0.227524 0.82713  0.10043625
 H1 0.326317 0.727538 0.82714  0.10043625
 H1 0.826344 0.227525 0.82713  0.10043625
 H1 0.82631 0.727538 0.82714  0.10043625
 H1 0.366841 0.108123 0.99023  0.10043625
 H1 0.366823 0.608109 0.99025  0.10043625
 H1 0.866841 0.108117 0.99023  0.10043625
 H1 0.866808 0.608118 0.99025  0.10043625
 H1 0.474624 0.059255 0.06558  0.10043625
 H1 0.474598 0.55925 0.06560  0.10043625
 H1 0.974622 0.059247 0.06558  0.10043625
 H1 0.974585 0.55926 0.06560  0.10043625
 H1 0.382242 0.398033 0.38021  0.10043625
 H1 0.382273 0.898084 0.38021  0.10043625
 H1 0.882235 0.398033 0.38021  0.10043625
 H1 0.882269 0.898086 0.38021  0.10043625
 H1 0.429626 0.380504 0.59877  0.10043625
 H1 0.429621 0.880544 0.59879  0.10043625
 H1 0.929609 0.380493 0.59878  0.10043625
 H1 0.929608 0.880538 0.59879  0.10043625
 H1 0.230109 0.286425 0.45682  0.10043625
 H1 0.230126 0.786485 0.45684  0.10043625
 H1 0.730093 0.286412 0.45682  0.10043625
 H1 0.730114 0.786479 0.45684  0.10043625
 H1 0.223159 0.327343 0.32599  0.10043625
 H1 0.223182 0.827378 0.32600  0.10043625
 H1 0.723155 0.327344 0.32600  0.10043625
 H1 0.723178 0.827379 0.32600  0.10043625
 H1 0.266155 0.409693 0.27634  0.10043625
 H1 0.266182 0.909716 0.27632  0.10043625
 H1 0.76615 0.409694 0.27634  0.10043625
 H1 0.766178 0.909717 0.2763  0.10043625
 H1 0.423659 0.47776 0.32724  0.10043625
 H1 0.423692 0.977797 0.32722  0.10043625
 H1 0.923652 0.47776 0.32725  0.10043625
 H1 0.923688 0.977798 0.32722  0.10043625
 H1 0.383165 0.358267 0.49048  0.10043625
 H1 0.383175 0.858319 0.49050  0.10043625
 H1 0.883147 0.358255 0.49048  0.10043625
 H1 0.883162 0.858312 0.49050  0.10043625
 H1 0.275492 0.309196 0.56567  0.10043625
 H1 0.275499 0.809247 0.56569  0.10043625
 H1 0.775477 0.309183 0.56567  0.10043625
 H1 0.775487 0.80924 0.56569  0.10043625
 H1 0.13214 0.35226 0.11994  0.10043625
 H1 0.13209 0.852283 0.11997  0.10043625
 H1 0.632131 0.352262 0.11994  0.10043625
 H1 0.632086 0.852282 0.1199  0.10043625
 H1 0.179623 0.369561 0.90143  0.10043625
 H1 0.179615 0.869541 0.9014  0.10043625
 H1 0.679626 0.369552 0.90143  0.10043625
 H1 0.679602 0.869547 0.90145  0.10043625
 H1 0.480004 0.463657 0.04324  0.10043625
 H1 0.479951 0.963684 0.04326  0.10043625
 H1 0.97999 0.463668 0.04324  0.10043625
 H1 0.97995 0.963677 0.04326  0.10043625
 H1 0.472945 0.422806 0.17416  0.10043625
 H1 0.472909 0.922822 0.17417  0.10043625
 H1 0.972942 0.422805 0.17416  0.10043625
 H1 0.9729 0.922823 0.17417  0.10043625
 H1 0.016015 0.340418 0.22377  0.10043625
 H1 0.015987 0.840432 0.22378  0.10043625
 H1 0.516007 0.340419 0.22377  0.10043625
 H1 0.515983 0.84043 0.2237  0.10043625
 H1 0.173648 0.272482 0.1728  0.10043625
 H1 0.173612 0.772499 0.17286  0.10043625
 H1 0.673639 0.272484 0.17285  0.10043625
 H1 0.673607 0.772498 0.17286  0.10043625
 H1 0.133153 0.391916 0.00973  0.10043625
 H1 0.133134 0.891903 0.00976  0.10043625
 H1 0.633156 0.391906 0.00973  0.10043625
 H1 0.633121 0.89191 0.00976  0.10043625
 H1 0.025377 0.440775 0.93438  0.10043625
 H1 0.02535 0.940773 0.93440  0.10043625
 H1 0.525379 0.440764 0.93438  0.10043625
 H1 0.525339 0.94078 0.93440  0.10043625
 C1 0.376802 0.002689 0.73343  0.76208625
 C1 0.37684 0.502704 0.733  0.76208625
 C1 0.876797 0.002689 0.73343  0.76208625
 C1 0.876833 0.502704 0.73339  0.76208625
 C1 0.364029 0.140819 0.34616  0.76208625
 C1 0.364002 0.640854 0.3461  0.76208625
 C1 0.864024 0.140819 0.34616  0.76208625
 C1 0.863996 0.640854 0.3461  0.76208625
 C2 0.446483 0.179603 0.53215  -0.21969375
 C2 0.446495 0.67966 0.53216  -0.21969375
 C2 0.946477 0.179603 0.53215  -0.21969375
 C2 0.946489 0.67966 0.53216  -0.21969375
 C2 0.448857 0.141285 0.64335  -0.21969375
 C2 0.448877 0.641327 0.64335  -0.21969375
 C2 0.948852 0.141285 0.64335  -0.21969375
 C2 0.948871 0.641327 0.64335  -0.21969375
 C3 0.03321 0.098978 0.64198  -0.03935625
 C3 0.033233 0.599021 0.64197  -0.03935625
 C3 0.533204 0.098978 0.64198  -0.03935625
 C3 0.533228 0.599022 0.64197  -0.03935625
 C3 0.004642 0.139782 0.43243  -0.03935625
 C3 0.004642 0.639829 0.43244  -0.03935625
 C3 0.504629 0.139776 0.43243  -0.03935625
 C3 0.504633 0.639825 0.43244  -0.03935625
 C4 0.39406 0.153987 0.41127  -0.10981875
 C4 0.394059 0.654033 0.41129  -0.10981875
 C4 0.894055 0.153987 0.41127  -0.10981875
 C4 0.894053 0.654033 0.41129  -0.10981875
 C3 0.335097 0.193116 0.51192  -0.03935625
 C3 0.335107 0.693173 0.51194  -0.03935625
 C3 0.835086 0.193108 0.51192  -0.03935625
 C3 0.835098 0.693169 0.51194  -0.03935625
 C3 0.340518 0.138941 0.67255  -0.03935625
 C3 0.340537 0.638974 0.67255  -0.03935625
 C3 0.840513 0.138942 0.67255  -0.03935625
 C3 0.840532 0.638974 0.67255  -0.03935625
 C3 0.317212 0.093153 0.70046  -0.03935625
 C3 0.317237 0.59318 0.70045  -0.03935625
 C3 0.817207 0.093154 0.70046  -0.03935625
 C3 0.817231 0.59318 0.70045  -0.03935625
 C3 0.009596 0.054261 0.6712  -0.03935625
 C3 0.009623 0.554297 0.67123  -0.03935625
 C3 0.50959 0.054261 0.67125  -0.03935625
 C3 0.509617 0.554298 0.67123  -0.03935625
 C3 0.030789 0.152221 0.49295  -0.03935625
 C3 0.030796 0.652274 0.49296  -0.03935625
 C3 0.530776 0.152215 0.49295  -0.03935625
 C3 0.530787 0.65227 0.49296  -0.03935625
 C4 0.401205 0.050827 0.70049  -0.10981875
 C4 0.401233 0.550854 0.70047  -0.10981875
 C4 0.901199 0.050827 0.70049  -0.10981875
 C4 0.901226 0.550854 0.70047  -0.10981875
 C3 0.309776 0.180054 0.4514  -0.03935625
 C3 0.30978 0.680107 0.45145  -0.03935625
 C3 0.809765 0.180047 0.45144  -0.03935625
 C3 0.809771 0.680103 0.45145  -0.03935625
 C1 0.126865 0.247213 0.76655  0.76208625
 C1 0.126837 0.747218 0.76655  0.76208625
 C1 0.626859 0.247213 0.76655  0.76208625
 C1 0.626831 0.747218 0.76655  0.76208625
 C1 0.113944 0.109227 0.15359  0.76208625
 C1 0.113934 0.609223 0.15362  0.76208625
 C1 0.613938 0.109227 0.15359  0.76208625
 C1 0.613926 0.609223 0.15362  0.76208625
 C2 0.19659 0.070267 0.96766  -0.21969375
 C2 0.196556 0.570275 0.96768  -0.21969375
 C2 0.696585 0.070268 0.96766  -0.21969375
 C2 0.696549 0.570275 0.96768  -0.21969375
 C2 0.199085 0.108472 0.85644  -0.21969375
 C2 0.199047 0.608489 0.85646  -0.21969375
 C2 0.699079 0.108472 0.85644  -0.21969375
 C2 0.69904 0.608489 0.85646  -0.21969375
 C3 0.28338 0.15075 0.85783  -0.03935625
 C3 0.283339 0.650768 0.85785  -0.03935625
 C3 0.783373 0.15075 0.85783  -0.03935625
 C3 0.783333 0.650768 0.85785  -0.03935625
 C3 0.254686 0.110191 0.06733  -0.03935625
 C3 0.254669 0.610178 0.06735  -0.03935625
 C3 0.754683 0.110188 0.06733  -0.03935625
 C3 0.754657 0.610182 0.06735  -0.03935625
 C4 0.144134 0.096029 0.08851  -0.10981875
 C4 0.144111 0.596026 0.08853  -0.10981875
 C4 0.644128 0.09603 0.08851  -0.10981875
 C4 0.644104 0.596025 0.08853  -0.10981875
 C3 0.085214 0.05681 0.98792  -0.03935625
 C3 0.085175 0.556825 0.9879  -0.03935625
 C3 0.585205 0.056814 0.98792  -0.03935625
 C3 0.585173 0.556819 0.98794  -0.03935625
 C3 0.090747 0.110883 0.82727  -0.03935625
 C3 0.090712 0.610897 0.82728  -0.03935625
 C3 0.590741 0.110883 0.82727  -0.03935625
 C3 0.590705 0.610897 0.82728  -0.03935625
 C3 0.067391 0.1567 0.79940  -0.03935625
 C3 0.067357 0.656712 0.79940  -0.03935625
 C3 0.567384 0.1567 0.79940  -0.03935625
 C3 0.56735 0.656713 0.79940  -0.03935625
 C3 0.259705 0.195505 0.82861  -0.03935625
 C3 0.259667 0.695521 0.8286  -0.03935625
 C3 0.759698 0.195505 0.82861  -0.03935625
 C3 0.75966 0.695521 0.8286  -0.03935625
 C3 0.280856 0.097675 0.00681  -0.03935625
 C3 0.280833 0.597668 0.00683  -0.03935625
 C3 0.780853 0.097672 0.00681  -0.03935625
 C3 0.780821 0.597673 0.00683  -0.03935625
 C4 0.151327 0.199006 0.79940  -0.10981875
 C4 0.151293 0.699019 0.79941  -0.10981875
 C4 0.65132 0.199007 0.79940  -0.10981875
 C4 0.651286 0.699019 0.79941  -0.10981875
 C3 0.05989 0.069946 0.048  -0.03935625
 C3 0.059858 0.569955 0.0484  -0.03935625
 C3 0.559881 0.06995 0.04839  -0.03935625
 C3 0.559855 0.569949 0.04842  -0.03935625
 C1 0.123151 0.497316 0.26658  0.76208625
 C1 0.123194 0.997332 0.26655  0.76208625
 C1 0.623146 0.497317 0.26658  0.76208625
 C1 0.623187 0.997332 0.26655  0.76208625
 C1 0.135971 0.359174 0.65380  0.76208625
 C1 0.13594 0.859202 0.65383  0.76208625
 C1 0.635965 0.359174 0.65380  0.76208625
 C1 0.635934 0.859203 0.65383  0.76208625
 C2 0.053476 0.320379 0.4678  -0.21969375
 C2 0.05349 0.820435 0.46784  -0.21969375
 C2 0.553471 0.320379 0.46783  -0.21969375
 C2 0.553484 0.820435 0.46784  -0.21969375
 C2 0.051101 0.358703 0.35663  -0.21969375
 C2 0.051128 0.858748 0.35664  -0.21969375
 C2 0.551096 0.358704 0.35663  -0.21969375
 C2 0.551122 0.858748 0.35664  -0.21969375
 C3 0.466748 0.401011 0.35801  -0.03935625
 C3 0.466778 0.901056 0.35801  -0.03935625
 C3 0.966741 0.40101 0.35801  -0.03935625
 C3 0.966773 0.901057 0.35801  -0.03935625
 C3 0.495335 0.36021 0.56755  -0.03935625
 C3 0.495338 0.860256 0.5675  -0.03935625
 C3 0.995322 0.360204 0.56755  -0.03935625
 C3 0.995328 0.860253 0.5675  -0.03935625
 C4 0.105913 0.345999 0.58870  -0.10981875
 C4 0.105914 0.846045 0.58872  -0.10981875
 C4 0.605908 0.345999 0.58870  -0.10981875
 C4 0.605908 0.846045 0.58872  -0.10981875
 C3 0.164869 0.306871 0.48805  -0.03935625
 C3 0.164882 0.806929 0.4880  -0.03935625
 C3 0.664858 0.306864 0.48805  -0.03935625
 C3 0.664873 0.806926 0.48807  -0.03935625
 C3 0.159441 0.361052 0.32744  -0.03935625
 C3 0.159466 0.861087 0.32744  -0.03935625
 C3 0.659436 0.361052 0.32744  -0.03935625
 C3 0.659462 0.861087 0.32744  -0.03935625
 C3 0.182744 0.406843 0.29953  -0.03935625
 C3 0.182776 0.906872 0.29952  -0.03935625
 C3 0.68274 0.406844 0.29953  -0.03935625
 C3 0.682771 0.906873 0.29952  -0.03935625
 C3 0.490361 0.445731 0.32875  -0.03935625
 C3 0.490395 0.94577 0.3287  -0.03935625
 C3 0.990354 0.445731 0.32875  -0.03935625
 C3 0.99039 0.945771 0.32874  -0.03935625
 C3 0.469181 0.347769 0.50703  -0.03935625
 C3 0.469191 0.847822 0.5070  -0.03935625
 C3 0.969168 0.347763 0.50703  -0.03935625
 C3 0.969181 0.847817 0.50705  -0.03935625
 C4 0.098751 0.449169 0.29951  -0.10981875
 C4 0.098787 0.9492 0.299  -0.10981875
 C4 0.598746 0.44917 0.29951  -0.10981875
 C4 0.59878 0.949199 0.29949  -0.10981875
 C3 0.190198 0.319935 0.54853  -0.03935625
 C3 0.190205 0.819988 0.54855  -0.03935625
 C3 0.690187 0.319927 0.54853  -0.03935625
 C3 0.690195 0.819984 0.54855  -0.03935625
 C1 0.373124 0.252798 0.23344  0.76208625
 C1 0.373098 0.752803 0.23343  0.76208625
 C1 0.873117 0.252799 0.23344  0.76208625
 C1 0.873091 0.752803 0.23343  0.76208625
 C1 0.386031 0.390796 0.84636  0.76208625
 C1 0.386024 0.890795 0.84639  0.76208625
 C1 0.886025 0.390796 0.84636  0.76208625
 C1 0.886018 0.890795 0.84639  0.76208625
 C2 0.303425 0.429747 0.0323  -0.21969375
 C2 0.303387 0.929756 0.03232  -0.21969375
 C2 0.803419 0.429747 0.0323  -0.21969375
 C2 0.803381 0.929756 0.03232  -0.21969375
 C2 0.300927 0.391528 0.1435  -0.21969375
 C2 0.300888 0.891548 0.14354  -0.21969375
 C2 0.800921 0.391529 0.14353  -0.21969375
 C2 0.800881 0.891548 0.14354  -0.21969375
 C3 0.216632 0.349251 0.14214  -0.03935625
 C3 0.216589 0.849272 0.14216  -0.03935625
 C3 0.716624 0.349252 0.14214  -0.03935625
 C3 0.716583 0.849272 0.1421  -0.03935625
 C3 0.245305 0.389849 0.93263  -0.03935625
 C3 0.245287 0.889837 0.93266  -0.03935625
 C3 0.745305 0.389844 0.93263  -0.03935625
 C3 0.745277 0.88984 0.93266  -0.03935625
 C4 0.355863 0.403999 0.91145  -0.10981875
 C4 0.35584 0.903997 0.91147  -0.10981875
 C4 0.855858 0.403999 0.91145  -0.10981875
 C4 0.855833 0.903997 0.91147  -0.10981875
 C3 0.414803 0.443198 0.01204  -0.03935625
 C3 0.414762 0.943215 0.01207  -0.03935625
 C3 0.914792 0.443204 0.01204  -0.03935625
 C3 0.914759 0.943211 0.01207  -0.03935625
 C3 0.40926 0.389119 0.1727  -0.03935625
 C3 0.409226 0.889135 0.17272  -0.03935625
 C3 0.909256 0.389119 0.17270  -0.03935625
 C3 0.909218 0.889136 0.17272  -0.03935625
 C3 0.432611 0.343304 0.20058  -0.03935625
 C3 0.432578 0.843318 0.20059  -0.03935625
 C3 0.932606 0.343303 0.20058  -0.03935625
 C3 0.93257 0.843319 0.20059  -0.03935625
 C3 0.2403 0.304498 0.17136  -0.03935625
 C3 0.24026 0.804518 0.17138  -0.03935625
 C3 0.740292 0.304499 0.17136  -0.03935625
 C3 0.740254 0.804517 0.17138  -0.03935625
 C3 0.219145 0.402357 0.99315  -0.03935625
 C3 0.21912 0.90235 0.99318  -0.03935625
 C3 0.719144 0.402352 0.99315  -0.03935625
 C3 0.71911 0.902354 0.99318  -0.03935625
 C4 0.348673 0.300999 0.20058  -0.10981875
 C4 0.348638 0.801014 0.20059  -0.10981875
 C4 0.848666 0.300999 0.20058  -0.10981875
 C4 0.848632 0.801014 0.20059  -0.10981875
 C3 0.440117 0.43007 0.95156  -0.03935625
 C3 0.440084 0.93008 0.95159  -0.03935625
 C3 0.940107 0.430076 0.95156  -0.03935625
 C3 0.94008 0.930076 0.95159  -0.03935625
 S1 0.484519 0.199319 0.6085  1.15281625
 S1 0.484517 0.699372 0.60860  1.15281625
 S1 0.984513 0.199319 0.6085  1.15281625
 S1 0.984511 0.699372 0.60860  1.15281625
 S1 0.234601 0.050414 0.89124  1.15281625
 S1 0.234571 0.550431 0.89126  1.15281625
 S1 0.734595 0.050414 0.89124  1.15281625
 S1 0.734564 0.550431 0.89126  1.15281625
 S1 0.015446 0.300663 0.39139  1.15281625
 S1 0.01545 0.800719 0.39141  1.15281625
 S1 0.51544 0.300664 0.39139  1.15281625
 S1 0.515443 0.800719 0.39141  1.15281625
 S1 0.26541 0.449588 0.10873  1.15281625
 S1 0.265379 0.949608 0.10874  1.15281625
 S1 0.765404 0.449588 0.10873  1.15281625
 S1 0.765373 0.949608 0.10874  1.15281625
 O1 0.404959 0.245363 0.63240  -0.62384375
 O1 0.404916 0.745398 0.63241  -0.62384375
 O1 0.904952 0.245363 0.63240  -0.62384375
 O1 0.904909 0.745398 0.63241  -0.62384375
 O2 0.449504 0.131653 0.30873  -0.78401375
 O2 0.449458 0.631668 0.30874  -0.78401375
 O2 0.949499 0.131653 0.30873  -0.78401375
 O2 0.949452 0.631669 0.30874  -0.78401375
 O3 0.11243 0.206855 0.61192  -0.53238375
 O3 0.112418 0.706939 0.61194  -0.53238375
 O3 0.612423 0.206854 0.61192  -0.53238375
 O3 0.612412 0.706939 0.61194  -0.53238375
 O4 0.268842 0.490613 0.74028  -0.720044583333
 O4 0.268791 0.990608 0.740  -0.720044583333
 O4 0.768835 0.490613 0.74028  -0.720044583333
 O4 0.768786 0.990609 0.740  -0.720044583333
 O4 0.465941 0.478945 0.75191  -0.720044583333
 O4 0.465885 0.978946 0.7519  -0.720044583333
 O4 0.965934 0.478945 0.75191  -0.720044583333
 O4 0.96588 0.978946 0.7519  -0.720044583333
 O4 0.255921 0.137062 0.33122  -0.720044583333
 O4 0.255881 0.637095 0.33126  -0.720044583333
 O4 0.755915 0.137061 0.33122  -0.720044583333
 O4 0.755875 0.637095 0.33126  -0.720044583333
 O1 0.154775 0.004511 0.86753  -0.62384375
 O1 0.154769 0.504521 0.86753  -0.62384375
 O1 0.654769 0.004511 0.86753  -0.62384375
 O1 0.654763 0.504521 0.86753  -0.62384375
 O2 0.199322 0.118446 0.19106  -0.78401375
 O2 0.199319 0.618445 0.19108  -0.78401375
 O2 0.699316 0.118446 0.19106  -0.78401375
 O2 0.699312 0.618445 0.19108  -0.78401375
 O3 0.362439 0.042578 0.88785  -0.53238375
 O3 0.362413 0.542609 0.88787  -0.53238375
 O3 0.862433 0.042578 0.88785  -0.53238375
 O3 0.862407 0.54261 0.88787  -0.53238375
 O4 0.018842 0.259342 0.75972  -0.720044583333
 O4 0.018815 0.759349 0.75972  -0.720044583333
 O4 0.518836 0.259342 0.75972  -0.720044583333
 O4 0.518809 0.75935 0.75972  -0.720044583333
 O4 0.215901 0.271001 0.74807  -0.720044583333
 O4 0.215875 0.771008 0.74807  -0.720044583333
 O4 0.715895 0.271001 0.74807  -0.720044583333
 O4 0.715869 0.771008 0.74807  -0.720044583333
 O4 0.005772 0.112927 0.16844  -0.720044583333
 O4 0.005768 0.612921 0.16848  -0.720044583333
 O4 0.505766 0.112927 0.16844  -0.720044583333
 O4 0.505761 0.61292 0.16848  -0.720044583333
 O1 0.095029 0.254628 0.36758  -0.62384375
 O1 0.094989 0.754664 0.36759  -0.62384375
 O1 0.595021 0.254628 0.36758  -0.62384375
 O1 0.594982 0.754665 0.36759  -0.62384375
 O2 0.050514 0.368346 0.69124  -0.78401375
 O2 0.050462 0.868361 0.69126  -0.78401375
 O2 0.550508 0.368347 0.69124  -0.78401375
 O2 0.550456 0.868362 0.69126  -0.78401375
 O3 0.38754 0.293116 0.38805  -0.53238375
 O3 0.387534 0.793202 0.38808  -0.53238375
 O3 0.887534 0.293114 0.38805  -0.53238375
 O3 0.887528 0.793201 0.38808  -0.53238375
 O4 0.231207 0.009412 0.25969  -0.720044583333
 O4 0.231153 0.509406 0.25971  -0.720044583333
 O4 0.731201 0.009412 0.25969  -0.720044583333
 O4 0.731147 0.509406 0.2597  -0.720044583333
 O4 0.034114 0.021072 0.24801  -0.720044583333
 O4 0.034056 0.521072 0.24806  -0.720044583333
 O4 0.534108 0.021072 0.24801  -0.720044583333
 O4 0.534051 0.521072 0.24806  -0.720044583333
 O4 0.244091 0.362932 0.66872  -0.720044583333
 O4 0.244048 0.862964 0.66878  -0.720044583333
 O4 0.744085 0.362931 0.66872  -0.720044583333
 O4 0.744042 0.862964 0.66878  -0.720044583333
 O1 0.345217 0.495494 0.13246  -0.62384375
 O1 0.345212 0.995507 0.13246  -0.62384375
 O1 0.845211 0.495495 0.13246  -0.62384375
 O1 0.845206 0.995507 0.13246  -0.62384375
 O2 0.300637 0.381574 0.80890  -0.78401375
 O2 0.300641 0.881572 0.80893  -0.78401375
 O2 0.800631 0.381573 0.80890  -0.78401375
 O2 0.800634 0.881572 0.80893  -0.78401375
 O3 0.13757 0.457417 0.11212  -0.53238375
 O3 0.137543 0.957451 0.11214  -0.53238375
 O3 0.637564 0.457417 0.11212  -0.53238375
 O3 0.637537 0.957452 0.11214  -0.53238375
 O4 0.481144 0.240665 0.24027  -0.720044583333
 O4 0.481119 0.740673 0.24026  -0.720044583333
 O4 0.981137 0.240665 0.24027  -0.720044583333
 O4 0.981113 0.740673 0.24026  -0.720044583333
 O4 0.284083 0.229008 0.25191  -0.720044583333
 O4 0.284061 0.729015 0.25191  -0.720044583333
 O4 0.784077 0.229008 0.25191  -0.720044583333
 O4 0.784054 0.729015 0.25191  -0.720044583333
 O4 0.49419 0.3871 0.8314  -0.720044583333
 O4 0.494192 0.887098 0.83154  -0.720044583333
 O4 0.994184 0.387101 0.83149  -0.720044583333
 O4 0.994185 0.887097 0.8315  -0.720044583333
