#======================================================================

# CRYSTAL DATA

#----------------------------------------------------------------------

data_VESTA_phase_1


_pd_phase_name                         MOF
_cell_length_a                         15.54100
_cell_length_b                         15.53600
_cell_length_c                         15.53300
_cell_angle_alpha                      76.13000
_cell_angle_beta                       76.13400
_cell_angle_gamma                      76.13900
_symmetry_space_group_name_H-M         "P 1"
_symmetry_Int_Tables_number            1

loop_
_symmetry_equiv_pos_as_xyz
   "x, y, z"

loop_
   _atom_site_label
   _atom_site_fract_x
   _atom_site_fract_y
   _atom_site_fract_z
 _atom_site_charge
 Zn1 0.075544 0.51084 0.51085  1.16446
 Zn1 0.51083 0.075619 0.5108  1.16446
 Zn1 0.510812 0.510818 0.07565  1.16446
 Zn1 0.489167 0.92438 0.48918  1.16446
 Zn1 0.924444 0.489155 0.48917  1.16446
 Zn1 0.489185 0.489173 0.92437  1.16446
 H1 0.976127 0.20163 0.50774  0.112543333333
 H1 0.507805 0.975993 0.20162  0.112543333333
 H1 0.201681 0.507533 0.97595  0.112543333333
 H1 0.798342 0.024018 0.4924  0.112543333333
 H1 0.02387 0.492228 0.79838  0.112543333333
 H1 0.492192 0.798364 0.0240  0.112543333333
 H1 0.02387 0.798365 0.49228  0.112543333333
 H1 0.492193 0.023998 0.79839  0.112543333333
 H1 0.798319 0.492463 0.02407  0.112543333333
 H1 0.201657 0.975978 0.50753  0.112543333333
 H1 0.976127 0.507763 0.20164  0.112543333333
 H1 0.507801 0.201626 0.97595  0.112543333333
 H1 0.237874 0.237664 0.52227  0.112543333333
 H1 0.522596 0.237723 0.23768  0.112543333333
 H1 0.237877 0.52231 0.23765  0.112543333333
 H1 0.762123 0.762334 0.47774  0.112543333333
 H1 0.762117 0.477684 0.76237  0.112543333333
 H1 0.4774 0.762269 0.76233  0.112543333333
 C1 0.065631 0.327523 0.51477  0.74363
 C2 0.102931 0.229209 0.51559  -0.0820533333333
 C3 0.046786 0.173212 0.51050  -0.0279183333333
 C1 0.514959 0.065481 0.32752  0.74363
 C2 0.515811 0.102788 0.22920  -0.0820533333333
 C3 0.51064 0.046663 0.17321  -0.0279183333333
 C1 0.32758 0.514634 0.06539  0.74363
 C2 0.229301 0.515523 0.10272  -0.0820533333333
 C3 0.173292 0.510387 0.04660  -0.0279183333333
 C1 0.67242 0.93457 0.48538  0.74363
 C2 0.7707 0.897245 0.48450  -0.0820533333333
 C3 0.826712 0.95335 0.4896  -0.0279183333333
 C1 0.934361 0.485174 0.67249  0.74363
 C2 0.897065 0.484359 0.77082  -0.0820533333333
 C3 0.953209 0.489473 0.82681  -0.0279183333333
 C1 0.48506 0.672463 0.93459  0.74363
 C2 0.484191 0.77077 0.89728  -0.0820533333333
 C3 0.489374 0.826758 0.95340  -0.0279183333333
 C1 0.934363 0.672473 0.48525  0.74363
 C2 0.897065 0.770787 0.48442  -0.0820533333333
 C3 0.953212 0.826783 0.4895  -0.0279183333333
 C1 0.485038 0.93451 0.67249  0.74363
 C2 0.484186 0.897203 0.77081  -0.0820533333333
 C3 0.489356 0.953327 0.82681  -0.0279183333333
 C1 0.672417 0.48536 0.93463  0.74363
 C2 0.770695 0.484471 0.89730  -0.0820533333333
 C3 0.826706 0.489608 0.95341  -0.0279183333333
 C1 0.327578 0.065429 0.51464  0.74363
 C2 0.229298 0.102754 0.51551  -0.0820533333333
 C3 0.173287 0.046647 0.51037  -0.0279183333333
 C1 0.065631 0.51482 0.3275  0.74363
 C2 0.10293 0.515635 0.22920  -0.0820533333333
 C3 0.046787 0.510519 0.1732  -0.0279183333333
 C1 0.514933 0.327528 0.06542  0.74363
 C2 0.515803 0.229221 0.10273  -0.0820533333333
 C3 0.510621 0.173232 0.04661  -0.0279183333333
 C2 0.081184 0.081098 0.50820  -0.0820533333333
 C4 0.02439 0.024355 0.50260  -0.095055
 C3 0.19415 0.193997 0.51868  -0.0279183333333
 C2 0.508374 0.081115 0.0810  -0.0820533333333
 C4 0.502642 0.024369 0.02435  -0.095055
 C3 0.518977 0.194024 0.19399  -0.0279183333333
 C2 0.081187 0.508222 0.08107  -0.0820533333333
 C4 0.02439 0.502598 0.02434  -0.095055
 C3 0.19415 0.518716 0.19398  -0.0279183333333
 C2 0.918815 0.918897 0.49181  -0.0820533333333
 C4 0.975609 0.975639 0.49741  -0.095055
 C3 0.805846 0.806001 0.4813  -0.0279183333333
 C2 0.918811 0.491771 0.91894  -0.0820533333333
 C4 0.97561 0.497395 0.97567  -0.095055
 C3 0.805844 0.481278 0.80604  -0.0279183333333
 C2 0.491622 0.918875 0.91894  -0.0820533333333
 C4 0.497354 0.975621 0.97567  -0.095055
 C3 0.481019 0.805967 0.8060  -0.0279183333333
 O1 0.983644 0.356554 0.50471  -0.641095
 O1 0.118556 0.375346 0.52295  -0.641095
 O1 0.504906 0.983465 0.3565  -0.641095
 O1 0.523059 0.118468 0.37534  -0.641095
 O1 0.356614 0.504572 0.98339  -0.641095
 O1 0.375376 0.52274 0.11839  -0.641095
 O1 0.643409 0.016575 0.49545  -0.641095
 O1 0.624613 0.881593 0.47726  -0.641095
 O1 0.016347 0.495239 0.64345  -0.641095
 O1 0.881432 0.476995 0.6246  -0.641095
 O1 0.495096 0.643427 0.01660  -0.641095
 O1 0.476998 0.624653 0.88158  -0.641095
 O1 0.016348 0.64344 0.49531  -0.641095
 O1 0.881441 0.624652 0.4770  -0.641095
 O1 0.495093 0.016526 0.64345  -0.641095
 O1 0.476936 0.881525 0.62467  -0.641095
 O1 0.643382 0.495429 0.0166  -0.641095
 O1 0.624621 0.477249 0.88163  -0.641095
 O1 0.356589 0.983425 0.50457  -0.641095
 O1 0.375384 0.118406 0.52275  -0.641095
 O1 0.983648 0.504746 0.35657  -0.641095
 O1 0.118558 0.523006 0.37535  -0.641095
 O1 0.50489 0.356565 0.98342  -0.641095
 O1 0.523004 0.375337 0.11843  -0.641095
