#======================================================================

# CRYSTAL DATA

#----------------------------------------------------------------------

data_VESTA_phase_1


_pd_phase_name                         MOF
_cell_length_a                         23.03700
_cell_length_b                         15.26200
_cell_length_c                         18.16400
_cell_angle_alpha                      89.98200
_cell_angle_beta                       90.00000
_cell_angle_gamma                      89.90200
_symmetry_space_group_name_H-M         "P 1"
_symmetry_Int_Tables_number            1

loop_
_symmetry_equiv_pos_as_xyz
   "x, y, z"

loop_
   _atom_site_label
   _atom_site_fract_x
   _atom_site_fract_y
   _atom_site_fract_z
 _atom_site_charge
 Zn1 0.250006 0.551919 0.09709  0.900272162162
 Zn1 0.750016 0.551919 0.09709  0.900272162162
 Zn1 0.250002 0.448054 0.9028  0.900272162162
 Zn1 0.750011 0.448054 0.9028  0.900272162162
 Zn1 0.250005 0.94801 0.59705  0.900272162162
 Zn1 0.750014 0.94801 0.59705  0.900272162162
 Zn1 0.250004 0.051963 0.4029  0.900272162162
 Zn1 0.750013 0.051963 0.4029  0.900272162162
 H1 0.348912 0.677727 0.04775  0.105518980344
 H1 0.848922 0.677728 0.04775  0.105518980344
 H1 0.45621 0.685972 0.04826  0.105518980344
 H1 0.95622 0.685972 0.04826  0.105518980344
 H1 0.457043 0.426438 0.14515  0.105518980344
 H1 0.957053 0.426437 0.14515  0.105518980344
 H1 0.349855 0.430647 0.14027  0.105518980344
 H1 0.849865 0.430647 0.14027  0.105518980344
 H1 0.34921 0.322221 0.95227  0.105518980344
 H1 0.84922 0.322221 0.95227  0.105518980344
 H1 0.45653 0.314009 0.95176  0.105518980344
 H1 0.95654 0.314009 0.95176  0.105518980344
 H1 0.456738 0.573492 0.85477  0.105518980344
 H1 0.956748 0.573492 0.85477  0.105518980344
 H1 0.349565 0.569241 0.85963  0.105518980344
 H1 0.849575 0.56924 0.85963  0.105518980344
 H1 0.151095 0.822208 0.54768  0.105518980344
 H1 0.651105 0.822208 0.54768  0.105518980344
 H1 0.043798 0.813955 0.54822  0.105518980344
 H1 0.543808 0.813955 0.54822  0.105518980344
 H1 0.04297 0.073433 0.64514  0.105518980344
 H1 0.54298 0.073434 0.64514  0.105518980344
 H1 0.150159 0.069228 0.64024  0.105518980344
 H1 0.650169 0.069228 0.64024  0.105518980344
 H1 0.150791 0.177792 0.45234  0.105518980344
 H1 0.650801 0.177792 0.45234  0.105518980344
 H1 0.043472 0.186012 0.451  0.105518980344
 H1 0.543481 0.186012 0.451  0.105518980344
 H1 0.043275 0.926586 0.35478  0.105518980344
 H1 0.543285 0.926585 0.35478  0.105518980344
 H1 0.150449 0.930833 0.3596  0.105518980344
 H1 0.650459 0.930833 0.35967  0.105518980344
 H1 0.151096 0.322246 0.95222  0.105518980344
 H1 0.651106 0.322246 0.95222  0.105518980344
 H1 0.043798 0.314001 0.95171  0.105518980344
 H1 0.543808 0.314001 0.95171  0.105518980344
 H1 0.042965 0.573535 0.85481  0.105518980344
 H1 0.542975 0.573535 0.85481  0.105518980344
 H1 0.150153 0.569326 0.85970  0.105518980344
 H1 0.650163 0.569326 0.85970  0.105518980344
 H1 0.150798 0.677753 0.04770  0.105518980344
 H1 0.650807 0.677752 0.04770  0.105518980344
 H1 0.043478 0.685966 0.04821  0.105518980344
 H1 0.543488 0.685965 0.04821  0.105518980344
 H1 0.04327 0.426483 0.14520  0.105518980344
 H1 0.54328 0.426482 0.14520  0.105518980344
 H1 0.150443 0.430733 0.14034  0.105518980344
 H1 0.650453 0.430733 0.14034  0.105518980344
 H1 0.348913 0.177766 0.45229  0.105518980344
 H1 0.848923 0.177766 0.45229  0.105518980344
 H1 0.45621 0.186019 0.45175  0.105518980344
 H1 0.95622 0.186019 0.45175  0.105518980344
 H1 0.457037 0.92654 0.35483  0.105518980344
 H1 0.957047 0.926539 0.35483  0.105518980344
 H1 0.349849 0.930745 0.35973  0.105518980344
 H1 0.849859 0.930745 0.35973  0.105518980344
 H1 0.349217 0.822181 0.54763  0.105518980344
 H1 0.849227 0.822181 0.54763  0.105518980344
 H1 0.456536 0.813962 0.54817  0.105518980344
 H1 0.956546 0.813962 0.54817  0.105518980344
 H1 0.456733 0.07339 0.64519  0.105518980344
 H1 0.956743 0.073388 0.64519  0.105518980344
 H1 0.349559 0.069141 0.64030  0.105518980344
 H1 0.849569 0.069141 0.64030  0.105518980344
 H1 0.250015 0.973127 0.83241  0.105518980344
 H1 0.750035 0.973127 0.83241  0.105518980344
 H1 0.249962 0.796932 0.01926  0.105518980344
 H1 0.74998 0.796932 0.01926  0.105518980344
 H1 0.24997 0.695115 0.79763  0.105518980344
 H1 0.749978 0.695115 0.79763  0.105518980344
 H1 0.249986 0.026846 0.16756  0.105518980344
 H1 0.749998 0.026846 0.16756  0.105518980344
 H1 0.25004 0.203042 0.9807  0.105518980344
 H1 0.750052 0.203042 0.9807  0.105518980344
 H1 0.250045 0.304859 0.2023  0.105518980344
 H1 0.750048 0.304859 0.2023  0.105518980344
 H1 0.249985 0.526902 0.33242  0.105518980344
 H1 0.749998 0.526902 0.33242  0.105518980344
 H1 0.250042 0.703009 0.51922  0.105518980344
 H1 0.750053 0.703009 0.51922  0.105518980344
 H1 0.250038 0.804931 0.29759  0.105518980344
 H1 0.750049 0.804931 0.29759  0.105518980344
 H1 0.250021 0.473072 0.66755  0.105518980344
 H1 0.75003 0.473072 0.66755  0.105518980344
 H1 0.249965 0.296964 0.48075  0.105518980344
 H1 0.749975 0.296964 0.48075  0.105518980344
 H1 0.24997 0.195042 0.70238  0.105518980344
 H1 0.749978 0.195042 0.70238  0.105518980344
 C1 0.37506 0.623441 0.06834  0.180547162162
 C1 0.87507 0.623441 0.06834  0.180547162162
 C2 0.43533 0.627088 0.06912  -0.137326409266
 C2 0.93534 0.627088 0.06912  -0.137326409266
 C3 0.467792 0.555911 0.09603  -0.0103868378378
 C3 0.967802 0.555911 0.09603  -0.0103868378378
 C2 0.43581 0.48417 0.12250  -0.137326409266
 C2 0.935819 0.48417 0.12250  -0.137326409266
 C1 0.375579 0.485459 0.12002  0.180547162162
 C1 0.875589 0.485458 0.12002  0.180547162162
 C1 0.375228 0.376502 0.93165  0.180547162162
 C1 0.875237 0.376501 0.93165  0.180547162162
 C2 0.435507 0.372873 0.93087  -0.137326409266
 C2 0.935517 0.372872 0.93087  -0.137326409266
 C3 0.467799 0.444048 0.90394  -0.0103868378378
 C3 0.967809 0.444048 0.90394  -0.0103868378378
 C2 0.435645 0.515762 0.87744  -0.137326409266
 C2 0.935654 0.515761 0.8774  -0.137326409266
 C1 0.375418 0.51445 0.87991  0.180547162162
 C1 0.875428 0.51445 0.87991  0.180547162162
 C1 0.12495 0.876472 0.5682  0.180547162162
 C1 0.624959 0.876472 0.56829  0.180547162162
 C2 0.06468 0.872821 0.56908  -0.137326409266
 C2 0.564689 0.872821 0.56908  -0.137326409266
 C3 0.032219 0.943974 0.59600  -0.0103868378378
 C3 0.532229 0.943974 0.59600  -0.0103868378378
 C2 0.064201 0.015721 0.62248  -0.137326409266
 C2 0.564211 0.015721 0.62248  -0.137326409266
 C1 0.124432 0.014436 0.6199  0.180547162162
 C1 0.624441 0.014436 0.61999  0.180547162162
 C1 0.124776 0.123535 0.43170  0.180547162162
 C1 0.624786 0.123534 0.43170  0.180547162162
 C2 0.064496 0.127166 0.43091  -0.137326409266
 C2 0.564506 0.127166 0.43091  -0.137326409266
 C3 0.032207 0.056015 0.40396  -0.0103868378378
 C3 0.532216 0.056015 0.40396  -0.0103868378378
 C2 0.064366 0.984295 0.37746  -0.137326409266
 C2 0.564376 0.984295 0.37746  -0.137326409266
 C1 0.124592 0.985605 0.37994  0.180547162162
 C1 0.624602 0.985604 0.37994  0.180547162162
 C1 0.124948 0.376532 0.93163  0.180547162162
 C1 0.624958 0.376532 0.93163  0.180547162162
 C2 0.064678 0.372885 0.93085  -0.137326409266
 C2 0.564687 0.372885 0.93085  -0.137326409266
 C3 0.032216 0.444062 0.90394  -0.0103868378378
 C3 0.532226 0.444063 0.90394  -0.0103868378378
 C2 0.064198 0.515803 0.8774  -0.137326409266
 C2 0.564208 0.515803 0.8774  -0.137326409266
 C1 0.124429 0.514514 0.87995  0.180547162162
 C1 0.624439 0.514514 0.87995  0.180547162162
 C1 0.12478 0.623474 0.06832  0.180547162162
 C1 0.62479 0.623473 0.06832  0.180547162162
 C2 0.0645 0.627102 0.06910  -0.137326409266
 C2 0.56451 0.627101 0.06910  -0.137326409266
 C3 0.032209 0.555926 0.09603  -0.0103868378378
 C3 0.532219 0.555926 0.09603  -0.0103868378378
 C2 0.064363 0.484212 0.12253  -0.137326409266
 C2 0.564373 0.484212 0.12253  -0.137326409266
 C1 0.12459 0.485525 0.12006  0.180547162162
 C1 0.624599 0.485524 0.12006  0.180547162162
 C1 0.375058 0.123502 0.43168  0.180547162162
 C1 0.875068 0.123501 0.43168  0.180547162162
 C2 0.435328 0.127153 0.43089  -0.137326409266
 C2 0.935338 0.127152 0.43089  -0.137326409266
 C3 0.467788 0.055999 0.40397  -0.0103868378378
 C3 0.967798 0.055999 0.40397  -0.0103868378378
 C2 0.435807 0.984253 0.37749  -0.137326409266
 C2 0.935816 0.984252 0.37749  -0.137326409266
 C1 0.375576 0.985538 0.37998  0.180547162162
 C1 0.875586 0.985537 0.37998  0.180547162162
 C1 0.375232 0.876439 0.56827  0.180547162162
 C1 0.875242 0.876439 0.56827  0.180547162162
 C2 0.435512 0.872808 0.56906  -0.137326409266
 C2 0.935521 0.872808 0.56906  -0.137326409266
 C3 0.467801 0.943959 0.59600  -0.0103868378378
 C3 0.967811 0.943958 0.5960  -0.0103868378378
 C2 0.435642 0.015679 0.62251  -0.137326409266
 C2 0.935652 0.015678 0.62251  -0.137326409266
 C1 0.375416 0.01437 0.62003  0.180547162162
 C1 0.875426 0.014369 0.62003  0.180547162162
 C3 0.249984 0.835811 0.80707  -0.0103868378378
 C3 0.750016 0.835811 0.80707  -0.0103868378378
 C2 0.250002 0.90717 0.85521  -0.137326409266
 C2 0.75002 0.90717 0.85521  -0.137326409266
 C3 0.249992 0.894562 0.9321  -0.0103868378378
 C3 0.750007 0.894562 0.9321  -0.0103868378378
 C2 0.249972 0.80847 0.96003  -0.137326409266
 C2 0.749988 0.80847 0.96003  -0.137326409266
 C3 0.249966 0.736861 0.91182  -0.0103868378378
 C3 0.749981 0.736861 0.91182  -0.0103868378378
 C2 0.249976 0.750506 0.83543  -0.137326409266
 C2 0.74999 0.750506 0.83543  -0.137326409266
 C4 0.249997 0.851244 0.72485  0.683807162162
 C4 0.750019 0.851244 0.72485  0.683807162162
 C4 0.249946 0.645797 0.94315  0.683807162162
 C4 0.749964 0.645797 0.94315  0.683807162162
 C5 0.249993 0.967849 0.9800  -0.0968428378378
 C5 0.750017 0.967849 0.9800  -0.0968428378378
 C3 0.250011 0.164162 0.192  -0.0103868378378
 C3 0.750021 0.164162 0.192  -0.0103868378378
 C2 0.249999 0.092803 0.14476  -0.137326409266
 C2 0.750011 0.092803 0.14476  -0.137326409266
 C3 0.250013 0.105412 0.06785  -0.0103868378378
 C3 0.750024 0.105412 0.06785  -0.0103868378378
 C2 0.25003 0.191504 0.03994  -0.137326409266
 C2 0.750043 0.191504 0.03994  -0.137326409266
 C3 0.250038 0.263113 0.08815  -0.0103868378378
 C3 0.750049 0.263113 0.08815  -0.0103868378378
 C2 0.250035 0.249467 0.16454  -0.137326409266
 C2 0.75004 0.249467 0.16454  -0.137326409266
 C4 0.250001 0.14873 0.27511  0.683807162162
 C4 0.750014 0.14873 0.27511  0.683807162162
 C4 0.250054 0.354177 0.05682  0.683807162162
 C4 0.750067 0.354177 0.05682  0.683807162162
 C5 0.249998 0.032125 0.01995  -0.0968428378378
 C5 0.75002 0.032125 0.01995  -0.0968428378378
 C3 0.250011 0.664223 0.3070  -0.0103868378378
 C3 0.750023 0.664223 0.3070  -0.0103868378378
 C2 0.25 0.592849 0.35521  -0.137326409266
 C2 0.750011 0.592849 0.35521  -0.137326409266
 C3 0.250009 0.605427 0.43211  -0.0103868378378
 C3 0.750021 0.605427 0.43211  -0.0103868378378
 C2 0.25003 0.691503 0.46001  -0.137326409266
 C2 0.750041 0.691503 0.46001  -0.137326409266
 C3 0.250037 0.763134 0.4117  -0.0103868378378
 C3 0.750048 0.763134 0.4117  -0.0103868378378
 C2 0.250027 0.74952 0.33539  -0.137326409266
 C2 0.75004 0.74952 0.33539  -0.137326409266
 C4 0.250006 0.648787 0.22484  0.683807162162
 C4 0.750016 0.648787 0.22484  0.683807162162
 C4 0.250056 0.854176 0.44312  0.683807162162
 C4 0.750066 0.854176 0.44312  0.683807162162
 C5 0.250005 0.532122 0.48002  -0.0968428378378
 C5 0.750016 0.532122 0.48002  -0.0968428378378
 C3 0.249997 0.335751 0.69291  -0.0103868378378
 C3 0.750005 0.335751 0.69291  -0.0103868378378
 C2 0.250007 0.407125 0.6447  -0.137326409266
 C2 0.750017 0.407125 0.6447  -0.137326409266
 C3 0.249997 0.394547 0.56786  -0.0103868378378
 C3 0.750006 0.394547 0.56786  -0.0103868378378
 C2 0.249977 0.308471 0.53996  -0.137326409266
 C2 0.749987 0.308471 0.53996  -0.137326409266
 C3 0.24997 0.236839 0.58818  -0.0103868378378
 C3 0.74998 0.236839 0.58818  -0.0103868378378
 C2 0.24998 0.250453 0.6645  -0.137326409266
 C2 0.749988 0.250453 0.6645  -0.137326409266
 C4 0.250002 0.351186 0.77513  0.683807162162
 C4 0.750012 0.351186 0.77513  0.683807162162
 C4 0.249952 0.145797 0.55685  0.683807162162
 C4 0.749962 0.145797 0.55685  0.683807162162
 C5 0.250001 0.467852 0.51995  -0.0968428378378
 C5 0.750012 0.467852 0.51995  -0.0968428378378
 N1 0.345181 0.553362 0.09246  -0.301267837838
 N1 0.845191 0.553364 0.09246  -0.301267837838
 N1 0.345182 0.446553 0.90750  -0.301267837838
 N1 0.845192 0.446554 0.90750  -0.301267837838
 N1 0.154831 0.94653 0.59241  -0.301267837838
 N1 0.65484 0.946531 0.59241  -0.301267837838
 N1 0.154824 0.0535 0.40755  -0.301267837838
 N1 0.654834 0.053501 0.40755  -0.301267837838
 N1 0.154826 0.446611 0.90751  -0.301267837838
 N1 0.654836 0.446612 0.90751  -0.301267837838
 N1 0.154826 0.553419 0.09247  -0.301267837838
 N1 0.654836 0.553419 0.09247  -0.301267837838
 N1 0.345178 0.053442 0.40756  -0.301267837838
 N1 0.845188 0.053443 0.40756  -0.301267837838
 N1 0.345184 0.946473 0.59242  -0.301267837838
 N1 0.845193 0.946473 0.59242  -0.301267837838
 O1 0.249964 0.639879 0.01302  -0.608962837838
 O1 0.74997 0.639879 0.01302  -0.608962837838
 O1 0.249938 0.582356 0.89767  -0.608962837838
 O1 0.749944 0.582356 0.89767  -0.608962837838
 O1 0.250014 0.933433 0.70593  -0.608962837838
 O1 0.750015 0.933433 0.70593  -0.608962837838
 O2 0.250007 0.78838 0.68103  -0.611297837838
 O2 0.750009 0.788381 0.68103  -0.611297837838
 O1 0.250048 0.360094 0.98695  -0.608962837838
 O1 0.750056 0.360095 0.98695  -0.608962837838
 O1 0.250075 0.417617 0.10230  -0.608962837838
 O1 0.750082 0.417617 0.10230  -0.608962837838
 O1 0.25 0.06654 0.29404  -0.608962837838
 O1 0.750009 0.06654 0.29404  -0.608962837838
 O2 0.250006 0.211593 0.31894  -0.611297837838
 O2 0.750015 0.211593 0.31894  -0.611297837838
 O1 0.250048 0.860051 0.51297  -0.608962837838
 O1 0.750058 0.860051 0.51297  -0.608962837838
 O1 0.25007 0.917647 0.39764  -0.608962837838
 O1 0.750081 0.917647 0.39764  -0.608962837838
 O1 0.250001 0.566592 0.20595  -0.608962837838
 O1 0.750011 0.566592 0.20595  -0.608962837838
 O2 0.250007 0.711658 0.18099  -0.611297837838
 O2 0.750017 0.711658 0.18099  -0.611297837838
 O1 0.24996 0.139922 0.48700  -0.608962837838
 O1 0.749969 0.139923 0.48700  -0.608962837838
 O1 0.249937 0.082326 0.60233  -0.608962837838
 O1 0.749947 0.082326 0.60233  -0.608962837838
 O1 0.250007 0.433381 0.7940  -0.608962837838
 O1 0.750018 0.433381 0.79401  -0.608962837838
 O2 0.25 0.288316 0.81898  -0.611297837838
 O2 0.75001 0.288316 0.81898  -0.611297837838
