#======================================================================

# CRYSTAL DATA

#----------------------------------------------------------------------

data_VESTA_phase_1


_pd_phase_name                         MOF
_cell_length_a                         12.48800
_cell_length_b                         13.57200
_cell_length_c                         18.21900
_cell_angle_alpha                      106.03900
_cell_angle_beta                       89.96800
_cell_angle_gamma                      90.04400
_symmetry_space_group_name_H-M         "P 1"
_symmetry_Int_Tables_number            1

loop_
_symmetry_equiv_pos_as_xyz
   "x, y, z"

loop_
   _atom_site_label
   _atom_site_fract_x
   _atom_site_fract_y
   _atom_site_fract_z
 _atom_site_charge
 Zn1 0.189749 0.749782 0.7502  0.871498684211
 Zn1 0.689752 0.749767 0.75020  0.871498684211
 Zn1 0.310248 0.250205 0.24983  0.871498684211
 Zn1 0.81025 0.2502 0.24983  0.871498684211
 H1 0.032772 0.933849 0.70702  0.0932339114833
 H1 0.532744 0.933864 0.70701  0.0932339114833
 H1 0.367252 0.772024 0.49938  0.0932339114833
 H1 0.867253 0.772044 0.49939  0.0932339114833
 H1 0.115912 0.064276 0.95156  0.0932339114833
 H1 0.615925 0.064211 0.95149  0.0932339114833
 H1 0.229535 0.724377 0.58113  0.0932339114833
 H1 0.729533 0.724393 0.58114  0.0932339114833
 H1 0.183657 0.936253 0.01445  0.0932339114833
 H1 0.683675 0.936325 0.01450  0.0932339114833
 H1 0.06674 0.860686 0.9857  0.0932339114833
 H1 0.566784 0.860703 0.98586  0.0932339114833
 H1 0.056453 0.96541 0.12198  0.0932339114833
 H1 0.556446 0.965538 0.12201  0.0932339114833
 H1 0.077296 0.078847 0.09469  0.0932339114833
 H1 0.577264 0.078934 0.09467  0.0932339114833
 H1 0.021282 0.783874 0.43585  0.0932339114833
 H1 0.521289 0.783858 0.43584  0.0932339114833
 H1 0.183384 0.869803 0.38692  0.0932339114833
 H1 0.683391 0.86979 0.38692  0.0932339114833
 H1 0.384342 0.884358 0.77919  0.0932339114833
 H1 0.884362 0.884335 0.77920  0.0932339114833
 H1 0.030059 0.562257 0.79319  0.0932339114833
 H1 0.530054 0.562273 0.79319  0.0932339114833
 H1 0.368721 0.729922 0.  0.0932339114833
 H1 0.868726 0.729937 0.  0.0932339114833
 H1 0.114624 0.435545 0.54940  0.0932339114833
 H1 0.614622 0.435542 0.54940  0.0932339114833
 H1 0.230715 0.777084 0.91955  0.0932339114833
 H1 0.730713 0.777081 0.91955  0.0932339114833
 H1 0.184339 0.563311 0.48672  0.0932339114833
 H1 0.684337 0.563309 0.4867  0.0932339114833
 H1 0.067493 0.639058 0.51453  0.0932339114833
 H1 0.567493 0.639056 0.51452  0.0932339114833
 H1 0.058486 0.534357 0.37838  0.0932339114833
 H1 0.558484 0.534353 0.37838  0.0932339114833
 H1 0.078152 0.420762 0.4057  0.0932339114833
 H1 0.578148 0.42076 0.40571  0.0932339114833
 H1 0.022448 0.717011 0.0640  0.0932339114833
 H1 0.522455 0.717004 0.06404  0.0932339114833
 H1 0.184704 0.631455 0.11282  0.0932339114833
 H1 0.684714 0.631446 0.11281  0.0932339114833
 H1 0.381122 0.611395 0.72131  0.0932339114833
 H1 0.881113 0.611372 0.72131  0.0932339114833
 H1 0.467258 0.066106 0.2930  0.0932339114833
 H1 0.967229 0.066115 0.29301  0.0932339114833
 H1 0.13272 0.227944 0.50064  0.0932339114833
 H1 0.632725 0.227964 0.50066  0.0932339114833
 H1 0.384129 0.935722 0.04854  0.0932339114833
 H1 0.88413 0.935677 0.04850  0.0932339114833
 H1 0.270449 0.275591 0.41890  0.0932339114833
 H1 0.770445 0.275618 0.41891  0.0932339114833
 H1 0.316362 0.063632 0.98556  0.0932339114833
 H1 0.816377 0.063706 0.98562  0.0932339114833
 H1 0.433253 0.139251 0.01420  0.0932339114833
 H1 0.933294 0.139275 0.01429  0.0932339114833
 H1 0.443597 0.034429 0.87804  0.0932339114833
 H1 0.943586 0.034557 0.87809  0.0932339114833
 H1 0.422761 0.921029 0.90538  0.0932339114833
 H1 0.922735 0.921117 0.90537  0.0932339114833
 H1 0.478692 0.216116 0.56419  0.0932339114833
 H1 0.978701 0.2161 0.56418  0.0932339114833
 H1 0.316585 0.130186 0.61311  0.0932339114833
 H1 0.816598 0.130172 0.61310  0.0932339114833
 H1 0.115647 0.115622 0.22084  0.0932339114833
 H1 0.615661 0.11562 0.22085  0.0932339114833
 H1 0.469934 0.437693 0.20685  0.0932339114833
 H1 0.96994 0.437711 0.2068  0.0932339114833
 H1 0.131269 0.270028 0.9989  0.0932339114833
 H1 0.631271 0.270041 0.99898  0.0932339114833
 H1 0.385378 0.56443 0.45064  0.0932339114833
 H1 0.885376 0.564433 0.45064  0.0932339114833
 H1 0.269283 0.222882 0.08049  0.0932339114833
 H1 0.769279 0.222885 0.080  0.0932339114833
 H1 0.315662 0.436665 0.51332  0.0932339114833
 H1 0.815662 0.436669 0.51333  0.0932339114833
 H1 0.432507 0.360915 0.48552  0.0932339114833
 H1 0.932506 0.36092 0.48552  0.0932339114833
 H1 0.441517 0.465621 0.62166  0.0932339114833
 H1 0.941515 0.465621 0.62166  0.0932339114833
 H1 0.421852 0.579214 0.59432  0.0932339114833
 H1 0.92185 0.579217 0.59433  0.0932339114833
 H1 0.477534 0.282958 0.93  0.0932339114833
 H1 0.977546 0.282954 0.93599  0.0932339114833
 H1 0.315279 0.368517 0.88723  0.0932339114833
 H1 0.815289 0.368508 0.88722  0.0932339114833
 H1 0.118886 0.388595 0.27873  0.0932339114833
 H1 0.618865 0.388572 0.27873  0.0932339114833
 C1 0.466127 0.889371 0.6758  -0.159801315789
 C1 0.966141 0.889362 0.675  -0.159801315789
 C1 0.376084 0.797636 0.56118  -0.159801315789
 C1 0.876088 0.797643 0.56119  -0.159801315789
 C2 0.204406 0.968782 0.50291  -0.0335213157895
 C2 0.704397 0.96878 0.50290  -0.0335213157895
 C2 0.047395 0.886952 0.54966  -0.0335213157895
 C2 0.547384 0.886949 0.54965  -0.0335213157895
 C3 0.078967 0.98745 0.9362  -0.169831315789
 C3 0.578951 0.987397 0.93621  -0.169831315789
 C4 0.298148 0.771026 0.60637  0.189478684211
 C4 0.798151 0.771033 0.60637  0.189478684211
 C5 0.097501 0.939969 0.00285  -0.110611315789
 C5 0.597527 0.939994 0.00286  -0.110611315789
 C5 0.04165 0.001769 0.07587  -0.110611315789
 C5 0.541666 0.001834 0.07586  -0.110611315789
 C1 0.067897 0.846204 0.47221  -0.159801315789
 C1 0.567897 0.846194 0.47221  -0.159801315789
 C6 0.463878 0.858464 0.59551  0.129758684211
 C6 0.963883 0.858467 0.59552  0.129758684211
 C7 0.136698 0.925642 0.86411  0.662518684211
 C7 0.636689 0.925492 0.86412  0.662518684211
 C1 0.155745 0.891851 0.44591  -0.159801315789
 C1 0.655745 0.891842 0.44590  -0.159801315789
 C4 0.384581 0.860405 0.71715  0.189478684211
 C4 0.884595 0.860392 0.71716  0.189478684211
 C1 0.464329 0.608085 0.82444  -0.159801315789
 C1 0.964326 0.608078 0.82444  -0.159801315789
 C1 0.376588 0.702906 0.93924  -0.159801315789
 C1 0.87659 0.702918 0.93924  -0.159801315789
 C2 0.204493 0.531236 0.99715  -0.0335213157895
 C2 0.704496 0.531229 0.99714  -0.0335213157895
 C2 0.047302 0.612735 0.95053  -0.0335213157895
 C2 0.5473 0.612727 0.95053  -0.0335213157895
 C3 0.078046 0.512471 0.56436  -0.169831315789
 C3 0.578035 0.512464 0.56436  -0.169831315789
 C4 0.298459 0.729287 0.89416  0.189478684211
 C4 0.798457 0.729285 0.89416  0.189478684211
 C5 0.097967 0.559705 0.49774  -0.110611315789
 C5 0.597966 0.559703 0.49775  -0.110611315789
 C5 0.042846 0.497973 0.42438  -0.110611315789
 C5 0.54285 0.497975 0.42438  -0.110611315789
 C1 0.068581 0.654269 0.02776  -0.159801315789
 C1 0.568583 0.654261 0.02775  -0.159801315789
 C6 0.463433 0.640773 0.90481  0.129758684211
 C6 0.963428 0.640775 0.90481  0.129758684211
 C7 0.134804 0.574173 0.63698  0.662518684211
 C7 0.634801 0.574174 0.63697  0.662518684211
 C1 0.15651 0.608811 0.0539  -0.159801315789
 C1 0.656515 0.608803 0.05398  -0.159801315789
 C4 0.382581 0.63684 0.78332  0.189478684211
 C4 0.882575 0.636825 0.78332  0.189478684211
 C1 0.033858 0.110603 0.32414  -0.159801315789
 C1 0.533869 0.110606 0.32415  -0.159801315789
 C1 0.123894 0.202337 0.43884  -0.159801315789
 C1 0.623898 0.20235 0.4388  -0.159801315789
 C2 0.295585 0.031196 0.49713  -0.0335213157895
 C2 0.795575 0.031194 0.49712  -0.0335213157895
 C2 0.452605 0.113025 0.4503  -0.0335213157895
 C2 0.952586 0.113027 0.45037  -0.0335213157895
 C3 0.421083 0.012544 0.06384  -0.169831315789
 C3 0.921066 0.012507 0.06383  -0.169831315789
 C4 0.201834 0.228947 0.39366  0.189478684211
 C4 0.701838 0.228963 0.3936  0.189478684211
 C5 0.40251 0.059961 0.99719  -0.110611315789
 C5 0.902533 0.059992 0.99722  -0.110611315789
 C5 0.458368 0.998124 0.92419  -0.110611315789
 C5 0.958383 0.998193 0.92420  -0.110611315789
 C1 0.432086 0.15378 0.52783  -0.159801315789
 C1 0.932084 0.153772 0.52782  -0.159801315789
 C6 0.036102 0.141509 0.40451  0.129758684211
 C6 0.536111 0.141514 0.40452  0.129758684211
 C7 0.363324 0.074414 0.13593  0.662518684211
 C7 0.86332 0.074308 0.1359  0.662518684211
 C1 0.344235 0.108133 0.55413  -0.159801315789
 C1 0.844237 0.108124 0.55412  -0.159801315789
 C4 0.115407 0.139573 0.28287  0.189478684211
 C4 0.615419 0.139574 0.28289  0.189478684211
 C1 0.035673 0.391891 0.17560  -0.159801315789
 C1 0.535657 0.391876 0.17560  -0.159801315789
 C1 0.123408 0.297051 0.06080  -0.159801315789
 C1 0.623402 0.297055 0.06080  -0.159801315789
 C2 0.295497 0.468735 0.00289  -0.0335213157895
 C2 0.7955 0.468728 0.0028  -0.0335213157895
 C2 0.452695 0.38724 0.04951  -0.0335213157895
 C2 0.952694 0.387235 0.04950  -0.0335213157895
 C3 0.421964 0.487507 0.43567  -0.169831315789
 C3 0.921953 0.487507 0.43568  -0.169831315789
 C4 0.201539 0.270679 0.1058  0.189478684211
 C4 0.701534 0.270683 0.10588  0.189478684211
 C5 0.402033 0.440268 0.50229  -0.110611315789
 C5 0.902033 0.440274 0.50230  -0.110611315789
 C5 0.457148 0.501999 0.57565  -0.110611315789
 C5 0.957154 0.502005 0.57566  -0.110611315789
 C1 0.431409 0.345702 0.97229  -0.159801315789
 C1 0.931415 0.345696 0.97228  -0.159801315789
 C6 0.036569 0.359193 0.09522  0.129758684211
 C6 0.536559 0.359193 0.09523  0.129758684211
 C7 0.365199 0.425802 0.36306  0.662518684211
 C7 0.865197 0.425805 0.36306  0.662518684211
 C1 0.343476 0.391159 0.94606  -0.159801315789
 C1 0.843485 0.391152 0.94605  -0.159801315789
 C4 0.117422 0.363141 0.21672  0.189478684211
 C4 0.617409 0.363129 0.21672  0.189478684211
 S1 0.139371 0.983321 0.58964  0.0837186842105
 S1 0.639353 0.983325 0.58963  0.0837186842105
 S1 0.138747 0.515895 0.91063  0.0837186842105
 S1 0.638746 0.515888 0.91062  0.0837186842105
 S1 0.360634 0.016651 0.41040  0.0837186842105
 S1 0.86061 0.016657 0.41039  0.0837186842105
 S1 0.361247 0.484077 0.08941  0.0837186842105
 S1 0.861248 0.484074 0.0894  0.0837186842105
 N1 0.301108 0.801752 0.68353  -0.366271315789
 N1 0.801116 0.801749 0.6835  -0.366271315789
 N1 0.300206 0.697019 0.81702  -0.366271315789
 N1 0.800202 0.697006 0.81702  -0.366271315789
 N1 0.19888 0.198223 0.31650  -0.366271315789
 N1 0.698888 0.198231 0.31651  -0.366271315789
 N1 0.199796 0.302962 0.18302  -0.366271315789
 N1 0.699787 0.302954 0.18302  -0.366271315789
 O1 0.217658 0.961246 0.8404  -0.628991315789
 O1 0.717737 0.96098 0.84046  -0.628991315789
 O2 0.096923 0.83472 0.83175  -0.623711315789
 O2 0.596859 0.834597 0.83176  -0.623711315789
 O1 0.213386 0.53739 0.66241  -0.628991315789
 O1 0.713385 0.537393 0.6624  -0.628991315789
 O2 0.096826 0.666145 0.66798  -0.623711315789
 O2 0.596827 0.666147 0.6679  -0.623711315789
 O1 0.282305 0.038872 0.15958  -0.628991315789
 O1 0.782364 0.038689 0.15962  -0.628991315789
 O2 0.403113 0.165329 0.16828  -0.623711315789
 O2 0.903072 0.165242 0.16830  -0.623711315789
 O1 0.286623 0.462587 0.3376  -0.628991315789
 O1 0.786621 0.46259 0.33762  -0.628991315789
 O2 0.40317 0.333826 0.33207  -0.623711315789
 O2 0.903173 0.333832 0.33207  -0.623711315789
