#======================================================================

# CRYSTAL DATA

#----------------------------------------------------------------------

data_VESTA_phase_1


_pd_phase_name                         MOF
_cell_length_a                         12.90600
_cell_length_b                         14.61500
_cell_length_c                         15.12500
_cell_angle_alpha                      90.00500
_cell_angle_beta                       90.01400
_cell_angle_gamma                      89.97600
_symmetry_space_group_name_H-M         "P 1"
_symmetry_Int_Tables_number            1

loop_
_symmetry_equiv_pos_as_xyz
   "x, y, z"

loop_
   _atom_site_label
   _atom_site_fract_x
   _atom_site_fract_y
   _atom_site_fract_z
 _atom_site_charge
 Ca1 0.433098 0.796565 0.46521  1.60948108696
 Ca1 0.932633 0.797314 0.46586  1.60948108696
 Ca1 0.316912 0.201737 0.96431  1.60948108696
 Ca1 0.81679 0.201243 0.96631  1.60948108696
 Ca1 0.066853 0.297625 0.03462  1.60948108696
 Ca1 0.566783 0.296455 0.03482  1.60948108696
 Ca1 0.183094 0.70184 0.5339  1.60948108696
 Ca1 0.682761 0.701467 0.53559  1.60948108696
 H1 0.371135 0.650214 0.74485  0.103108586957
 H1 0.869914 0.65191 0.74503  0.103108586957
 H1 0.384578 0.533917 0.8648  0.103108586957
 H1 0.881823 0.536322 0.86576  0.103108586957
 H1 0.488374 0.25843 0.71843  0.103108586957
 H1 0.986352 0.259727 0.72165  0.103108586957
 H1 0.544788 0.218749 0.56656  0.103108586957
 H1 0.0 0.219035 0.57041  0.103108586957
 H1 0.552591 0.339234 0.45032  0.103108586957
 H1 0.0 0.338828 0.45354  0.103108586957
 H1 0.503642 0.498514 0.48499  0.103108586957
 H1 0.0 0.498397 0.48699  0.103108586957
 H1 0.379015 0.347122 0.24375  0.103108586957
 H1 0.879308 0.347 0.24561  0.103108586957
 H1 0.366587 0.462887 0.36431  0.103108586957
 H1 0.866223 0.46275 0.36613  0.103108586957
 H1 0.263204 0.739411 0.2193  0.103108586957
 H1 0.761384 0.738802 0.22118  0.103108586957
 H1 0.206442 0.779891 0.06775  0.103108586957
 H1 0.704618 0.779107 0.06953  0.103108586957
 H1 0.197712 0.659909 0.95104  0.103108586957
 H1 0.697081 0.659211 0.95270  0.103108586957
 H1 0.24618 0.500358 0.98498  0.103108586957
 H1 0.746505 0.499855 0.98661  0.103108586957
 H1 0.130028 0.152466 0.75563  0.103108586957
 H1 0.628771 0.15013 0.75521  0.103108586957
 H1 0.117743 0.037094 0.63472  0.103108586957
 H1 0.61541 0.033818 0.63520  0.103108586957
 H1 0.01274 0.760579 0.77847  0.103108586957
 H1 0.511596 0.758406 0.78160  0.103108586957
 H1 0.955587 0.719652 0.92980  0.103108586957
 H1 0.455223 0.718792 0.93348  0.103108586957
 H1 0.946981 0.839202 0.04693  0.103108586957
 H1 0.447427 0.839299 0.04971  0.103108586957
 H1 0.996056 0.99874 0.01371  0.103108586957
 H1 0.496285 0.998554 0.01501  0.103108586957
 H1 0.120543 0.847379 0.25448  0.103108586957
 H1 0.620832 0.847186 0.25635  0.103108586957
 H1 0.133889 0.962938 0.13382  0.103108586957
 H1 0.633287 0.962986 0.13584  0.103108586957
 H1 0.23889 0.239041 0.27859  0.103108586957
 H1 0.736765 0.23936 0.28090  0.103108586957
 H1 0.295664 0.279397 0.43021  0.103108586957
 H1 0.793655 0.279736 0.43248  0.103108586957
 H1 0.303142 0.159581 0.54714  0.103108586957
 H1 0.802397 0.159713 0.54916  0.103108586957
 H1 0.253608 0.000269 0.51332  0.103108586957
 H1 0.753841 0.00023 0.51519  0.103108586957
 C1 0.432605 0.639222 0.58093  0.773191086957
 C1 0.932953 0.639766 0.58160  0.773191086957
 C2 0.432653 0.561999 0.64480  -0.0548964130435
 C2 0.932308 0.56297 0.64593  -0.0548964130435
 C3 0.399181 0.581558 0.72999  -0.0931105797101
 C3 0.897905 0.583105 0.73074  -0.0931105797101
 C3 0.405037 0.515583 0.79722  -0.0931105797101
 C3 0.902844 0.517525 0.79837  -0.0931105797101
 C2 0.436253 0.427001 0.77849  -0.0548964130435
 C2 0.934098 0.428793 0.78037  -0.0548964130435
 C2 0.464794 0.402134 0.69035  -0.0548964130435
 C2 0.963437 0.403314 0.69260  -0.0548964130435
 C2 0.467443 0.471639 0.62269  -0.0548964130435
 C2 0.966983 0.472403 0.62458  -0.0548964130435
 C3 0.493048 0.311053 0.66768  -0.0931105797101
 C3 0.991663 0.312043 0.67064  -0.0931105797101
 C3 0.523621 0.288977 0.58300  -0.0931105797101
 C3 0.0 0.289412 0.58631  -0.0931105797101
 C3 0.527558 0.357275 0.51696  -0.0931105797101
 C3 0.0 0.357302 0.51991  -0.0931105797101
 C3 0.499999 0.446332 0.53621  -0.0931105797101
 C3 0.0 0.446523 0.53847  -0.0931105797101
 C4 0.439208 0.359319 0.85362  0.783581086957
 C4 0.937248 0.361792 0.8560  0.783581086957
 C1 0.316809 0.359202 0.07993  0.773191086957
 C1 0.816965 0.358768 0.08181  0.773191086957
 C2 0.31732 0.435988 0.14427  -0.0548964130435
 C2 0.817484 0.435672 0.14604  -0.0548964130435
 C3 0.351162 0.415929 0.22927  -0.0931105797101
 C3 0.851287 0.415741 0.23107  -0.0931105797101
 C3 0.345893 0.48161 0.29682  -0.0931105797101
 C3 0.845602 0.481417 0.29861  -0.0931105797101
 C2 0.314843 0.57036 0.27860  -0.0548964130435
 C2 0.814109 0.570032 0.28035  -0.0548964130435
 C2 0.286067 0.595739 0.19064  -0.0548964130435
 C2 0.785345 0.595295 0.19237  -0.0548964130435
 C2 0.282878 0.526563 0.12267  -0.0548964130435
 C2 0.782683 0.526128 0.12439  -0.0548964130435
 C3 0.258112 0.687003 0.16839  -0.0931105797101
 C3 0.756801 0.686426 0.17017  -0.0931105797101
 C3 0.227318 0.709521 0.08387  -0.0931105797101
 C3 0.726032 0.708851 0.08561  -0.0931105797101
 C3 0.222879 0.641532 0.01754  -0.0931105797101
 C3 0.722212 0.640891 0.01922  -0.0931105797101
 C3 0.250146 0.552323 0.03636  -0.0931105797101
 C3 0.750011 0.551802 0.03804  -0.0931105797101
 C4 0.311876 0.637625 0.35412  0.783581086957
 C4 0.810306 0.637232 0.3558  0.783581086957
 C1 0.066983 0.140258 0.91893  0.773191086957
 C1 0.567158 0.139172 0.91913  0.773191086957
 C2 0.067718 0.063489 0.85465  -0.0548964130435
 C2 0.567204 0.061961 0.85523  -0.0548964130435
 C3 0.101997 0.083675 0.76982  -0.0931105797101
 C3 0.600721 0.081495 0.77006  -0.0931105797101
 C3 0.096764 0.018223 0.70209  -0.0931105797101
 C3 0.594919 0.015504 0.70282  -0.0931105797101
 C2 0.065193 0.929601 0.72003  -0.0548964130435
 C2 0.563718 0.926944 0.7215  -0.0548964130435
 C2 0.036077 0.904045 0.80781  -0.0548964130435
 C2 0.535153 0.902104 0.8096  -0.0548964130435
 C2 0.032946 0.972982 0.8759  -0.0548964130435
 C2 0.532472 0.971622 0.87734  -0.0548964130435
 C3 0.007764 0.812786 0.82962  -0.0931105797101
 C3 0.506922 0.811044 0.83235  -0.0931105797101
 C3 0.976732 0.790019 0.91  -0.0931105797101
 C3 0.476363 0.789006 0.9170  -0.0931105797101
 C3 0.97235 0.857776 0.98055  -0.0931105797101
 C3 0.472428 0.857315 0.98308  -0.0931105797101
 C3 0.999934 0.946985 0.96212  -0.0931105797101
 C3 0.499936 0.946355 0.96382  -0.0931105797101
 C4 0.061393 0.862592 0.64438  0.783581086957
 C4 0.560765 0.859258 0.64640  0.783581086957
 C1 0.182819 0.859414 0.41837  0.773191086957
 C1 0.682957 0.859144 0.42014  0.773191086957
 C2 0.18254 0.936105 0.35394  -0.0548964130435
 C2 0.682509 0.935977 0.35586  -0.0548964130435
 C3 0.148722 0.916071 0.2689  -0.0931105797101
 C3 0.648675 0.915972 0.27085  -0.0931105797101
 C3 0.154529 0.981638 0.20133  -0.0931105797101
 C3 0.653961 0.981666 0.20334  -0.0931105797101
 C2 0.186099 0.070228 0.21950  -0.0548964130435
 C2 0.685 0.070383 0.22162  -0.0548964130435
 C2 0.214874 0.095584 0.3074  -0.0548964130435
 C2 0.713817 0.09571 0.30958  -0.0548964130435
 C2 0.217473 0.026504 0.37549  -0.0548964130435
 C2 0.717004 0.026505 0.37751  -0.0548964130435
 C3 0.243455 0.186698 0.32962  -0.0931105797101
 C3 0.741845 0.186939 0.33183  -0.0931105797101
 C3 0.274234 0.209152 0.41416  -0.0931105797101
 C3 0.772706 0.209398 0.41635  -0.0931105797101
 C3 0.278004 0.141246 0.48060  -0.0931105797101
 C3 0.777164 0.141386 0.48265  -0.0931105797101
 C3 0.250157 0.05218 0.4618  -0.0931105797101
 C3 0.749824 0.052212 0.46381  -0.0931105797101
 C4 0.189801 0.137364 0.14394  0.783581086957
 C4 0.687931 0.137604 0.14609  0.783581086957
 O1 0.355988 0.695091 0.58088  -0.760958913043
 O1 0.856521 0.695794 0.58107  -0.760958913043
 O1 0.0098 0.652264 0.52934  -0.760958913043
 O1 0.50934 0.652109 0.52860  -0.760958913043
 O2 0.381642 0.288861 0.84841  -0.742368913043
 O2 0.879827 0.291195 0.8518  -0.742368913043
 O2 0.996578 0.382269 0.92024  -0.742368913043
 O2 0.498017 0.378999 0.91839  -0.742368913043
 O1 0.392846 0.302716 0.07997  -0.760958913043
 O1 0.893306 0.302589 0.08139  -0.760958913043
 O1 0.240348 0.347276 0.02705  -0.760958913043
 O1 0.740043 0.346467 0.02953  -0.760958913043
 O2 0.369688 0.707964 0.34956  -0.742368913043
 O2 0.867839 0.707794 0.35180  -0.742368913043
 O2 0.252603 0.617688 0.41849  -0.742368913043
 O2 0.750484 0.617096 0.41976  -0.742368913043
 O1 0.143023 0.196673 0.91911  -0.760958913043
 O1 0.643803 0.194953 0.91930  -0.760958913043
 O1 0.490292 0.152145 0.9713  -0.760958913043
 O1 0.990341 0.152375 0.97149  -0.760958913043
 O2 0.12002 0.792678 0.64785  -0.742368913043
 O2 0.618337 0.788763 0.65158  -0.742368913043
 O2 0.50197 0.878998 0.58163  -0.742368913043
 O2 0.0 0.882329 0.58122  -0.742368913043
 O1 0.106063 0.803759 0.41920  -0.760958913043
 O1 0.606916 0.802717 0.41999  -0.760958913043
 O1 0.259897 0.846761 0.47040  -0.760958913043
 O1 0.759376 0.847114 0.47304  -0.760958913043
 O2 0.132405 0.208043 0.1482  -0.742368913043
 O2 0.630266 0.208077 0.15069  -0.742368913043
 O2 0.249277 0.117059 0.07986  -0.742368913043
 O2 0.747045 0.117482 0.08165  -0.742368913043
