#======================================================================

# CRYSTAL DATA

#----------------------------------------------------------------------

data_VESTA_phase_1


_pd_phase_name                         MOF
_cell_length_a                         22.35300
_cell_length_b                         16.76000
_cell_length_c                         18.26200
_cell_angle_alpha                      62.67800
_cell_angle_beta                       72.41000
_cell_angle_gamma                      90.05400
_symmetry_space_group_name_H-M         "P 1"
_symmetry_Int_Tables_number            1

loop_
_symmetry_equiv_pos_as_xyz
   "x, y, z"

loop_
   _atom_site_label
   _atom_site_fract_x
   _atom_site_fract_y
   _atom_site_fract_z
 _atom_site_charge
 Zn1 0.291473 0.789319 0.64707  0.895338537736
 Zn1 0.789741 0.78889 0.64776  0.895338537736
 Zn2 0.298647 0.466368 0.16006  1.07367853774
 Zn2 0.797246 0.465812 0.16043  1.07367853774
 Zn1 0.208474 0.43552 0.35344  0.895338537736
 Zn1 0.70843 0.435655 0.35355  0.895338537736
 Zn2 0.202647 0.626031 0.84003  1.07367853774
 Zn2 0.700954 0.625588 0.84059  1.07367853774
 Zn1 0.385445 0.288818 0.6478  0.895338537736
 Zn1 0.885411 0.288682 0.64792  0.895338537736
 Zn2 0.120314 0.965807 0.16006  1.07367853774
 Zn2 0.620324 0.965549 0.1602  1.07367853774
 Zn1 0.114404 0.935978 0.35299  0.895338537736
 Zn1 0.614399 0.935719 0.35319  0.895338537736
 Zn2 0.379579 0.12592 0.84090  1.07367853774
 Zn2 0.879407 0.125894 0.8409  1.07367853774
 H1 0.378429 0.493425 0.69519  0.109552537736
 H1 0.878288 0.493598 0.69503  0.109552537736
 H1 0.360448 0.299696 0.9609  0.109552537736
 H1 0.860149 0.299832 0.96081  0.109552537736
 H1 0.31839 0.567918 0.8999  0.109552537736
 H1 0.817475 0.567769 0.89991  0.109552537736
 H1 0.475827 0.0 0.63385  0.109552537736
 H1 0.974553 0.0 0.63468  0.109552537736
 H1 0.380983 0.858424 0.74814  0.109552537736
 H1 0.879388 0.858069 0.74886  0.109552537736
 H1 0.464569 0.017016 0.35954  0.109552537736
 H1 0.963682 0.016178 0.36043  0.109552537736
 H1 0.419736 0.0 0.25779  0.109552537736
 H1 0.919336 0.0 0.2583  0.109552537736
 H1 0.31337 0.900496 0.31929  0.109552537736
 H1 0.812931 0.899705 0.31943  0.109552537736
 H1 0.260069 0.816483 0.48209  0.109552537736
 H1 0.759093 0.816157 0.48208  0.109552537736
 H1 0.016618 0.105825 0.48200  0.109552537736
 H1 0.517566 0.106812 0.4811  0.109552537736
 H1 0.015865 0.063467 0.41011  0.109552537736
 H1 0.516751 0.064468 0.40922  0.109552537736
 H1 0.49789 0.188491 0.28718  0.109552537736
 H1 0.997361 0.187695 0.28761  0.109552537736
 H1 0.429523 0.301127 0.22775  0.109552537736
 H1 0.929289 0.300644 0.22774  0.109552537736
 H1 0.316086 0.236909 0.49059  0.109552537736
 H1 0.815808 0.237386 0.49027  0.109552537736
 H1 0.382496 0.126523 0.54961  0.109552537736
 H1 0.881871 0.126668 0.54971  0.109552537736
 H1 0.12134 0.187964 0.30537  0.109552537736
 H1 0.621269 0.187702 0.3054  0.109552537736
 H1 0.139653 0.259823 0.03960  0.109552537736
 H1 0.639697 0.259608 0.03967  0.109552537736
 H1 0.182494 0.467082 0.10027  0.109552537736
 H1 0.681765 0.466983 0.10059  0.109552537736
 H1 0.024917 0.643094 0.36596  0.109552537736
 H1 0.524482 0.642747 0.36579  0.109552537736
 H1 0.119508 0.606077 0.2520  0.109552537736
 H1 0.619411 0.606091 0.25190  0.109552537736
 H1 0.035391 0.376355 0.64072  0.109552537736
 H1 0.535173 0.3763 0.6406  0.109552537736
 H1 0.079957 0.259181 0.74282  0.109552537736
 H1 0.57987 0.259396 0.74277  0.109552537736
 H1 0.186146 0.219276 0.68173  0.109552537736
 H1 0.686141 0.219666 0.68168  0.109552537736
 H1 0.239546 0.297625 0.51895  0.109552537736
 H1 0.739507 0.29798 0.51889  0.109552537736
 H1 0.482328 0.587371 0.51850  0.109552537736
 H1 0.982895 0.587823 0.51866  0.109552537736
 H1 0.482837 0.473001 0.59044  0.109552537736
 H1 0.983341 0.473468 0.59067  0.109552537736
 H1 0.002108 0.475 0.7130  0.109552537736
 H1 0.501234 0.474475 0.71297  0.109552537736
 H1 0.07035 0.527945 0.77292  0.109552537736
 H1 0.569174 0.527405 0.77318  0.109552537736
 H1 0.184099 0.727121 0.51033  0.109552537736
 H1 0.683377 0.72647 0.51079  0.109552537736
 H1 0.117843 0.67598 0.45094  0.109552537736
 H1 0.617348 0.675446 0.45104  0.109552537736
 H1 0.275146 0.993396 0.69550  0.109552537736
 H1 0.774569 0.99299 0.69572  0.109552537736
 H1 0.160116 0.799774 0.96046  0.109552537736
 H1 0.659795 0.79955 0.96090  0.109552537736
 H1 0.232313 0.067872 0.90034  0.109552537736
 H1 0.732399 0.067598 0.90043  0.109552537736
 H1 0.20801 0.509089 0.63397  0.109552537736
 H1 0.708074 0.509131 0.6338  0.109552537736
 H1 0.246166 0.35838 0.74844  0.109552537736
 H1 0.746095 0.358283 0.74839  0.109552537736
 H1 0.355285 0.517165 0.35989  0.109552537736
 H1 0.855308 0.516972 0.35985  0.109552537736
 H1 0.450523 0.501898 0.25826  0.109552537736
 H1 0.950586 0.5017 0.2582  0.109552537736
 H1 0.026299 0.400499 0.32006  0.109552537736
 H1 0.526199 0.400624 0.31997  0.109552537736
 H1 0.998682 0.316132 0.48292  0.109552537736
 H1 0.498632 0.316205 0.48283  0.109552537736
 H1 0.241952 0.606571 0.48127  0.109552537736
 H1 0.742029 0.606551 0.48117  0.109552537736
 H1 0.278106 0.564029 0.40951  0.109552537736
 H1 0.778176 0.563977 0.40944  0.109552537736
 H1 0.357379 0.688032 0.28716  0.109552537736
 H1 0.857492 0.68786 0.28709  0.109552537736
 H1 0.45535 0.800556 0.22743  0.109552537736
 H1 0.95544 0.800435 0.22732  0.109552537736
 H1 0.439163 0.736916 0.49004  0.109552537736
 H1 0.939172 0.737031 0.48991  0.109552537736
 H1 0.343337 0.626708 0.54934  0.109552537736
 H1 0.843392 0.626755 0.54924  0.109552537736
 H1 0.224651 0.688275 0.30525  0.109552537736
 H1 0.724663 0.68809 0.30527  0.109552537736
 H1 0.340041 0.76036 0.04033  0.109552537736
 H1 0.840003 0.760299 0.04029  0.109552537736
 H1 0.267656 0.967891 0.10069  0.109552537736
 H1 0.767682 0.967757 0.10083  0.109552537736
 H1 0.291373 0.143102 0.36729  0.109552537736
 H1 0.791377 0.143081 0.36718  0.109552537736
 H1 0.253626 0.106527 0.25268  0.109552537736
 H1 0.753591 0.106317 0.25271  0.109552537736
 H1 0.144235 0.876333 0.64114  0.109552537736
 H1 0.644062 0.876694 0.64128  0.109552537736
 H1 0.048979 0.759138 0.74269  0.109552537736
 H1 0.548905 0.759389 0.74284  0.109552537736
 H1 0.473402 0.7194 0.68105  0.109552537736
 H1 0.973275 0.719612 0.6808  0.109552537736
 H1 0.501096 0.797762 0.51819  0.109552537736
 H1 0.0 0.798205 0.51  0.109552537736
 H1 0.257242 0.087812 0.51996  0.109552537736
 H1 0.757321 0.08789 0.51984  0.109552537736
 H1 0.221174 0.97336 0.591  0.109552537736
 H1 0.721162 0.973472 0.59165  0.109552537736
 H1 0.141864 0.974818 0.71400  0.109552537736
 H1 0.641922 0.974946 0.7139  0.109552537736
 H1 0.044005 0.027586 0.77371  0.109552537736
 H1 0.54411 0.027802 0.77364  0.109552537736
 H1 0.060073 0.226361 0.51104  0.109552537736
 H1 0.56026 0.226721 0.51099  0.109552537736
 H1 0.155779 0.175484 0.45175  0.109552537736
 H1 0.655929 0.175771 0.45169  0.109552537736
 C1 0.367862 0.476499 0.7633  -0.0556747122642
 C1 0.867587 0.47663 0.76321  -0.0556747122642
 C2 0.372697 0.389585 0.8243  -0.130746962264
 C2 0.872485 0.389727 0.82424  -0.130746962264
 C1 0.358076 0.367703 0.91258  -0.0556747122642
 C1 0.857741 0.367812 0.9124  -0.0556747122642
 C2 0.340157 0.432832 0.93910  -0.130746962264
 C2 0.839607 0.432854 0.93904  -0.130746962264
 C1 0.333881 0.518728 0.87786  -0.0556747122642
 C1 0.833192 0.51867 0.87783  -0.0556747122642
 C2 0.346952 0.540489 0.79030  -0.130746962264
 C2 0.846381 0.540481 0.79024  -0.130746962264
 C3 0.325498 0.410598 0.03350  0.680369787736
 C3 0.824792 0.41054 0.03348  0.680369787736
 C3 0.338409 0.630512 0.72527  0.680369787736
 C3 0.837613 0.630433 0.725  0.680369787736
 C3 0.389666 0.319371 0.79581  0.680369787736
 C3 0.889513 0.319494 0.79569  0.680369787736
 C4 0.444735 0.971059 0.62140  0.0399202044025
 C4 0.943398 0.97043 0.6221  0.0399202044025
 C4 0.397681 0.896126 0.67708  0.0399202044025
 C4 0.896172 0.895702 0.67780  0.0399202044025
 C5 0.402695 0.933973 0.54336  0.169931037736
 C5 0.901338 0.933508 0.54405  0.169931037736
 C6 0.383779 0.929804 0.47520  0.185196037736
 C6 0.88262 0.92925 0.47581  0.185196037736
 C1 0.418102 0.976085 0.38517  -0.0556747122642
 C1 0.917214 0.975323 0.38586  -0.0556747122642
 C1 0.393046 0.966446 0.32790  -0.0556747122642
 C1 0.89243 0.965598 0.32841  -0.0556747122642
 C1 0.334816 0.910428 0.36123  -0.0556747122642
 C1 0.83418 0.909708 0.36152  -0.0556747122642
 C4 0.304388 0.863739 0.45166  0.0399202044025
 C4 0.803463 0.863251 0.451  0.0399202044025
 C7 0.485902 0.079598 0.45918  -0.0571339622642
 C7 0.984959 0.078802 0.45989  -0.0571339622642
 C2 0.444683 0.148392 0.42249  -0.130746962264
 C2 0.944047 0.147955 0.42281  -0.130746962264
 C1 0.457727 0.198824 0.33181  -0.0556747122642
 C1 0.957237 0.198288 0.33209  -0.0556747122642
 C1 0.419782 0.26225 0.29815  -0.0556747122642
 C1 0.919463 0.261917 0.29817  -0.0556747122642
 C2 0.367802 0.276188 0.35477  -0.130746962264
 C2 0.867531 0.276195 0.35458  -0.130746962264
 C1 0.355207 0.226147 0.44536  -0.0556747122642
 C1 0.854879 0.226361 0.44520  -0.0556747122642
 C1 0.393288 0.163186 0.47887  -0.0556747122642
 C1 0.892761 0.163188 0.47896  -0.0556747122642
 C3 0.326783 0.344124 0.31825  0.680369787736
 C3 0.826468 0.344046 0.31796  0.680369787736
 C1 0.132113 0.239175 0.23715  -0.0556747122642
 C1 0.631964 0.238932 0.23728  -0.0556747122642
 C2 0.127224 0.213237 0.17617  -0.130746962264
 C2 0.627216 0.212997 0.1762  -0.130746962264
 C1 0.142074 0.279547 0.0878  -0.0556747122642
 C1 0.642015 0.279324 0.08799  -0.0556747122642
 C2 0.160307 0.371222 0.06120  -0.130746962264
 C2 0.660015 0.371022 0.06142  -0.130746962264
 C1 0.166711 0.395873 0.1223  -0.0556747122642
 C1 0.66621 0.395715 0.12267  -0.0556747122642
 C2 0.153407 0.330107 0.21003  -0.130746962264
 C2 0.652973 0.329914 0.21029  -0.130746962264
 C3 0.175172 0.443413 0.96674  0.680369787736
 C3 0.674708 0.443232 0.96702  0.680369787736
 C3 0.162128 0.355266 0.27487  0.680369787736
 C3 0.661429 0.354939 0.27534  0.680369787736
 C3 0.110112 0.114373 0.20487  0.680369787736
 C3 0.610195 0.114146 0.20492  0.680369787736
 C4 0.055821 0.592254 0.37860  0.0399202044025
 C4 0.55547 0.592021 0.3784  0.0399202044025
 C4 0.102731 0.572749 0.32309  0.0399202044025
 C4 0.602553 0.5727 0.32296  0.0399202044025
 C5 0.097451 0.476831 0.45693  0.169931037736
 C5 0.597193 0.476765 0.45684  0.169931037736
 C6 0.116172 0.404443 0.52525  0.185196037736
 C6 0.615967 0.404491 0.52518  0.185196037736
 C1 0.081783 0.360905 0.61525  -0.0556747122642
 C1 0.581603 0.36096 0.61519  -0.0556747122642
 C1 0.106687 0.294017 0.67272  -0.0556747122642
 C1 0.606585 0.294217 0.67267  -0.0556747122642
 C1 0.164817 0.271128 0.63960  -0.0556747122642
 C1 0.664762 0.271427 0.63955  -0.0556747122642
 C4 0.195295 0.314626 0.54919  0.0399202044025
 C4 0.69522 0.314902 0.54914  0.0399202044025
 C7 0.014402 0.538531 0.54083  -0.0571339622642
 C7 0.513833 0.53812 0.54068  -0.0571339622642
 C2 0.055503 0.57044 0.57787  -0.130746962264
 C2 0.554806 0.569984 0.57787  -0.130746962264
 C1 0.042326 0.530032 0.66858  -0.0556747122642
 C1 0.541456 0.529513 0.66862  -0.0556747122642
 C1 0.080207 0.559675 0.7024  -0.0556747122642
 C1 0.579171 0.559112 0.70272  -0.0556747122642
 C2 0.132257 0.630326 0.64606  -0.130746962264
 C2 0.631237 0.629737 0.64642  -0.130746962264
 C1 0.144923 0.671086 0.55543  -0.0556747122642
 C1 0.644151 0.670479 0.55575  -0.0556747122642
 C1 0.106933 0.641736 0.52170  -0.0556747122642
 C1 0.606299 0.641206 0.52182  -0.0556747122642
 C3 0.173382 0.661659 0.68262  0.680369787736
 C3 0.672065 0.661187 0.68318  0.680369787736
 C1 0.251559 0.976474 0.76356  -0.0556747122642
 C1 0.751142 0.976095 0.76380  -0.0556747122642
 C2 0.216317 0.889565 0.82428  -0.130746962264
 C2 0.715836 0.88924 0.82463  -0.130746962264
 C1 0.186628 0.867731 0.91234  -0.0556747122642
 C1 0.686347 0.867463 0.91271  -0.0556747122642
 C2 0.191004 0.932866 0.9390  -0.130746962264
 C2 0.690912 0.932629 0.93929  -0.130746962264
 C1 0.227936 0.018692 0.87818  -0.0556747122642
 C1 0.727899 0.018396 0.87834  -0.0556747122642
 C2 0.258812 0.040422 0.79075  -0.130746962264
 C2 0.758646 0.040058 0.79089  -0.130746962264
 C3 0.157971 0.91064 0.03324  0.680369787736
 C3 0.657954 0.910497 0.03347  0.680369787736
 C3 0.29982 0.13039 0.72603  0.680369787736
 C3 0.799684 0.130022 0.72606  0.680369787736
 C3 0.214012 0.819401 0.79547  0.680369787736
 C3 0.713111 0.819037 0.79599  0.680369787736
 C4 0.24526 0.47092 0.62160  0.0399202044025
 C4 0.745286 0.470896 0.62153  0.0399202044025
 C4 0.264695 0.396039 0.67738  0.0399202044025
 C4 0.764651 0.395945 0.67734  0.0399202044025
 C5 0.325943 0.433872 0.5437  0.169931037736
 C5 0.82592 0.433733 0.54372  0.169931037736
 C6 0.378595 0.429709 0.47569  0.185196037736
 C6 0.878589 0.429555 0.47569  0.185196037736
 C1 0.388972 0.47617 0.3856  -0.0556747122642
 C1 0.88899 0.475988 0.38560  -0.0556747122642
 C1 0.442393 0.466633 0.32841  -0.0556747122642
 C1 0.942431 0.466446 0.32843  -0.0556747122642
 C1 0.483981 0.410478 0.36187  -0.0556747122642
 C1 0.984027 0.410334 0.36193  -0.0556747122642
 C4 0.469492 0.363583 0.45233  0.0399202044025
 C4 0.969513 0.36347 0.45240  0.0399202044025
 C7 0.284393 0.579324 0.45934  -0.0571339622642
 C7 0.784462 0.579277 0.4592  -0.0571339622642
 C2 0.343835 0.648202 0.42239  -0.130746962264
 C2 0.843915 0.648139 0.42230  -0.130746962264
 C1 0.37559 0.698464 0.33169  -0.0556747122642
 C1 0.875686 0.698347 0.33160  -0.0556747122642
 C1 0.430316 0.761837 0.29784  -0.0556747122642
 C1 0.930399 0.761752 0.29774  -0.0556747122642
 C2 0.454485 0.775886 0.35431  -0.130746962264
 C2 0.954537 0.775894 0.35418  -0.130746962264
 C1 0.422274 0.726084 0.44492  -0.0556747122642
 C1 0.922315 0.726129 0.44480  -0.0556747122642
 C1 0.367487 0.663196 0.47860  -0.0556747122642
 C1 0.867547 0.663203 0.47850  -0.0556747122642
 C3 0.013822 0.843694 0.31750  0.680369787736
 C3 0.513782 0.843601 0.31766  0.680369787736
 C1 0.248298 0.739562 0.23723  -0.0556747122642
 C1 0.748315 0.739404 0.23726  -0.0556747122642
 C2 0.283622 0.713586 0.17647  -0.130746962264
 C2 0.783614 0.713455 0.17646  -0.130746962264
 C1 0.31343 0.780021 0.08848  -0.0556747122642
 C1 0.813417 0.779924 0.08848  -0.0556747122642
 C2 0.309064 0.871824 0.06189  -0.130746962264
 C2 0.80907 0.871729 0.06196  -0.130746962264
 C1 0.272032 0.896564 0.12277  -0.0556747122642
 C1 0.772054 0.896433 0.12288  -0.0556747122642
 C2 0.241074 0.830667 0.21014  -0.130746962264
 C2 0.741097 0.8305 0.2102  -0.130746962264
 C3 0.342234 0.94395 0.96777  0.680369787736
 C3 0.842201 0.943898 0.96783  0.680369787736
 C3 0.200077 0.855741 0.27490  0.680369787736
 C3 0.700075 0.855489 0.27506  0.680369787736
 C3 0.286044 0.61467 0.20508  0.680369787736
 C3 0.785904 0.614504 0.20509  0.680369787736
 C4 0.25422 0.092382 0.37958  0.0399202044025
 C4 0.754197 0.09236 0.37954  0.0399202044025
 C4 0.23499 0.073115 0.32373  0.0399202044025
 C4 0.73495 0.072997 0.32376  0.0399202044025
 C5 0.173629 0.977117 0.45731  0.169931037736
 C5 0.673569 0.977145 0.45737  0.169931037736
 C6 0.120977 0.904716 0.52530  0.185196037736
 C6 0.620932 0.904739 0.52541  0.185196037736
 C1 0.110559 0.861007 0.61539  -0.0556747122642
 C1 0.610468 0.861205 0.61551  -0.0556747122642
 C1 0.057131 0.79412 0.67253  -0.0556747122642
 C1 0.557085 0.794248 0.67268  -0.0556747122642
 C1 0.015548 0.771432 0.6390  -0.0556747122642
 C1 0.515597 0.771311 0.63918  -0.0556747122642
 C4 0.030086 0.81509 0.54853  0.0399202044025
 C4 0.530162 0.814826 0.54870  0.0399202044025
 C7 0.214856 0.038448 0.54184  -0.0571339622642
 C7 0.714895 0.038574 0.54177  -0.0571339622642
 C2 0.155356 0.070147 0.57874  -0.130746962264
 C2 0.655452 0.070363 0.57867  -0.130746962264
 C1 0.123646 0.029728 0.66945  -0.0556747122642
 C1 0.623739 0.029924 0.66938  -0.0556747122642
 C1 0.068987 0.059244 0.70328  -0.0556747122642
 C1 0.56911 0.059483 0.70321  -0.0556747122642
 C2 0.044845 0.129737 0.64680  -0.130746962264
 C2 0.545002 0.13003 0.64673  -0.130746962264
 C1 0.076967 0.170448 0.55617  -0.0556747122642
 C1 0.577136 0.170776 0.55611  -0.0556747122642
 C1 0.131679 0.141247 0.52250  -0.0556747122642
 C1 0.631824 0.141537 0.52244  -0.0556747122642
 C3 0.485886 0.161259 0.6833  0.680369787736
 C3 0.985727 0.16102 0.68344  0.680369787736
 N1 0.447965 0.994755 0.53694  0.0288685377358
 N1 0.946729 0.994125 0.5376  0.0288685377358
 N2 0.372226 0.873906 0.62803  -0.361057712264
 N2 0.870682 0.873587 0.62871  -0.361057712264
 N2 0.327727 0.872918 0.50763  -0.361057712264
 N2 0.826535 0.872487 0.50806  -0.361057712264
 N1 0.052424 0.531468 0.46314  0.0288685377358
 N1 0.552019 0.531214 0.46300  0.0288685377358
 N2 0.12793 0.501287 0.37232  -0.361057712264
 N2 0.627804 0.501344 0.37223  -0.361057712264
 N2 0.172111 0.379774 0.49302  -0.361057712264
 N2 0.671967 0.379928 0.49298  -0.361057712264
 N1 0.283883 0.494614 0.53719  0.0288685377358
 N1 0.783921 0.494559 0.53714  0.0288685377358
 N2 0.314445 0.373841 0.6284  -0.361057712264
 N2 0.81437 0.37367 0.62844  -0.361057712264
 N2 0.418449 0.372695 0.50825  -0.361057712264
 N2 0.918439 0.372561 0.5082  -0.361057712264
 N1 0.215523 0.031562 0.4639  0.0288685377358
 N1 0.715485 0.031636 0.46394  0.0288685377358
 N2 0.185288 0.0 0.37258  -0.361057712264
 N2 0.685228 0.0 0.37267  -0.361057712264
 N2 0.081172 0.880199 0.49266  -0.361057712264
 N2 0.581201 0.880006 0.49281  -0.361057712264
 O1 0.318859 0.482801 0.04426  -0.607888962264
 O1 0.817554 0.482555 0.04446  -0.607888962264
 O2 0.320258 0.33176 0.09222  -0.586887712264
 O2 0.819957 0.331766 0.09208  -0.586887712264
 O2 0.370321 0.666438 0.64587  -0.586887712264
 O2 0.869893 0.666757 0.64601  -0.586887712264
 O3 0.295337 0.672016 0.75563  -0.634588962264
 O3 0.793974 0.671276 0.75569  -0.634588962264
 O1 0.413527 0.346716 0.71307  -0.607888962264
 O1 0.913464 0.346808 0.7129  -0.607888962264
 O1 0.378329 0.237001 0.8560  -0.607888962264
 O1 0.878087 0.237098 0.8559  -0.607888962264
 O1 0.276003 0.346866 0.37192  -0.607888962264
 O1 0.775874 0.347049 0.37178  -0.607888962264
 O1 0.346903 0.393899 0.23503  -0.607888962264
 O1 0.846219 0.393335 0.23470  -0.607888962264
 O1 0.182405 0.526412 0.95581  -0.607888962264
 O1 0.68161 0.526205 0.95622  -0.607888962264
 O2 0.180019 0.423293 0.90812  -0.586887712264
 O2 0.679688 0.42321 0.90831  -0.586887712264
 O2 0.130031 0.312082 0.3542  -0.586887712264
 O2 0.62939 0.311468 0.35469  -0.586887712264
 O3 0.205474 0.426926 0.24443  -0.634588962264
 O3 0.704579 0.426813 0.24504  -0.634588962264
 O1 0.086266 0.058974 0.28762  -0.607888962264
 O1 0.586311 0.058747 0.28766  -0.607888962264
 O1 0.121378 0.092158 0.14471  -0.607888962264
 O1 0.621529 0.091951 0.14475  -0.607888962264
 O1 0.224097 0.718348 0.62882  -0.607888962264
 O1 0.722882 0.717695 0.62952  -0.607888962264
 O1 0.153545 0.627947 0.76585  -0.607888962264
 O1 0.651867 0.627822 0.76640  -0.607888962264
 O1 0.158863 0.982756 0.04419  -0.607888962264
 O1 0.658878 0.982653 0.04434  -0.607888962264
 O2 0.133706 0.831822 0.09172  -0.586887712264
 O2 0.633688 0.831699 0.09202  -0.586887712264
 O2 0.307262 0.166628 0.64656  -0.586887712264
 O2 0.807062 0.166167 0.64662  -0.586887712264
 O3 0.328002 0.171461 0.75667  -0.634588962264
 O3 0.827918 0.171173 0.75659  -0.634588962264
 O1 0.231612 0.847 0.71266  -0.607888962264
 O1 0.729882 0.846573 0.71324  -0.607888962264
 O1 0.195481 0.736937 0.85551  -0.607888962264
 O1 0.695062 0.736542 0.85607  -0.607888962264
 O1 0.038285 0.846365 0.37103  -0.607888962264
 O1 0.538268 0.846186 0.37120  -0.607888962264
 O1 0.034822 0.893397 0.23424  -0.607888962264
 O1 0.534793 0.893328 0.23440  -0.607888962264
 O1 0.341001 0.027029 0.95677  -0.607888962264
 O1 0.840957 0.026971 0.95685  -0.607888962264
 O2 0.366924 0.923745 0.90936  -0.586887712264
 O2 0.866851 0.92372 0.90939  -0.586887712264
 O2 0.192726 0.81246 0.35434  -0.586887712264
 O2 0.692691 0.812127 0.35450  -0.586887712264
 O3 0.17184 0.927347 0.24434  -0.634588962264
 O3 0.671849 0.927115 0.24453  -0.634588962264
 O1 0.268384 0.559159 0.28782  -0.607888962264
 O1 0.768345 0.559094 0.2878  -0.607888962264
 O1 0.304819 0.59262 0.14483  -0.607888962264
 O1 0.804394 0.592268 0.14496  -0.607888962264
 O1 0.4614 0.217319 0.62982  -0.607888962264
 O1 0.96131 0.217183 0.62984  -0.607888962264
 O1 0.465051 0.128019 0.76659  -0.607888962264
 O1 0.964841 0.127759 0.76665  -0.607888962264
