#======================================================================

# CRYSTAL DATA

#----------------------------------------------------------------------

data_VESTA_phase_1


_pd_phase_name                         MOF
_cell_length_a                         19.67300
_cell_length_b                         24.25200
_cell_length_c                         15.38900
_cell_angle_alpha                      96.07900
_cell_angle_beta                       98.00100
_cell_angle_gamma                      113.54000
_symmetry_space_group_name_H-M         "P 1"
_symmetry_Int_Tables_number            1

loop_
_symmetry_equiv_pos_as_xyz
   "x, y, z"

loop_
   _atom_site_label
   _atom_site_fract_x
   _atom_site_fract_y
   _atom_site_fract_z
 _atom_site_charge
 Zn1 0.495719 0.287953 0.29251  0.815980840708
 Zn1 0.496056 0.788002 0.29252  0.815980840708
 Zn1 0.995727 0.287954 0.29251  0.815980840708
 Zn1 0.996064 0.788002 0.29252  0.815980840708
 Zn2 0.442988 0.341861 0.66994  0.892995840708
 Zn2 0.443233 0.841748 0.66992  0.892995840708
 Zn2 0.942995 0.341859 0.66994  0.892995840708
 Zn2 0.943238 0.841746 0.66992  0.892995840708
 Zn1 0.226929 0.308377 0.06664  0.815980840708
 Zn1 0.227217 0.808449 0.06669  0.815980840708
 Zn1 0.726941 0.308377 0.06664  0.815980840708
 Zn1 0.727229 0.808448 0.06669  0.815980840708
 Zn1 0.003989 0.211977 0.70744  0.815980840708
 Zn1 0.004328 0.712025 0.7074  0.815980840708
 Zn1 0.503997 0.211978 0.70744  0.815980840708
 Zn1 0.504335 0.712025 0.70745  0.815980840708
 Zn2 0.056813 0.158229 0.33004  0.892995840708
 Zn2 0.057054 0.658119 0.33001  0.892995840708
 Zn2 0.556821 0.158227 0.33004  0.892995840708
 Zn2 0.557061 0.658116 0.33001  0.892995840708
 Zn1 0.272823 0.191533 0.93327  0.815980840708
 Zn1 0.273107 0.691602 0.93332  0.815980840708
 Zn1 0.772835 0.191533 0.93327  0.815980840708
 Zn1 0.773118 0.691601 0.93332  0.815980840708
 Zn2 0.249758 0.250215 0.49995  0.892995840708
 Zn2 0.250296 0.749752 0.50001  0.892995840708
 Zn2 0.749771 0.250214 0.49995  0.892995840708
 Zn2 0.750305 0.749753 0.50001  0.892995840708
 H1 0.143384 0.497064 0.81346  0.0937386978508
 H1 0.143445 0.996946 0.81340  0.0937386978508
 H1 0.643398 0.497064 0.81346  0.0937386978508
 H1 0.643458 0.996946 0.81340  0.0937386978508
 H1 0.365268 0.026714 0.94671  0.0937386978508
 H1 0.365159 0.526576 0.94659  0.0937386978508
 H1 0.865282 0.026714 0.9467  0.0937386978508
 H1 0.865172 0.526575 0.94658  0.0937386978508
 H1 0.337047 0.417583 0.89060  0.0937386978508
 H1 0.33739 0.917774 0.89072  0.0937386978508
 H1 0.837059 0.417582 0.89060  0.0937386978508
 H1 0.837403 0.917775 0.89072  0.0937386978508
 H1 0.211087 0.349266 0.79376  0.0937386978508
 H1 0.21151 0.849355 0.79377  0.0937386978508
 H1 0.711099 0.349265 0.79376  0.0937386978508
 H1 0.711523 0.849354 0.79377  0.0937386978508
 H1 0.412021 0.003568 0.66829  0.0937386978508
 H1 0.411909 0.503702 0.66840  0.0937386978508
 H1 0.912033 0.003568 0.66829  0.0937386978508
 H1 0.911922 0.503701 0.66840  0.0937386978508
 H1 0.235716 0.062423 0.59929  0.0937386978508
 H1 0.235808 0.562739 0.59917  0.0937386978508
 H1 0.735729 0.062423 0.59929  0.0937386978508
 H1 0.735823 0.56274 0.59917  0.0937386978508
 H1 0.139685 0.454561 0.56852  0.0937386978508
 H1 0.139731 0.954206 0.56846  0.0937386978508
 H1 0.639699 0.454561 0.56852  0.0937386978508
 H1 0.639743 0.954206 0.56846  0.0937386978508
 H1 0.181591 0.370415 0.5760  0.0937386978508
 H1 0.181796 0.870129 0.57578  0.0937386978508
 H1 0.681604 0.370415 0.57604  0.0937386978508
 H1 0.681809 0.870129 0.57578  0.0937386978508
 H1 0.091175 0.324988 0.14082  0.0937386978508
 H1 0.091508 0.825008 0.14092  0.0937386978508
 H1 0.591187 0.324989 0.14082  0.0937386978508
 H1 0.591521 0.825009 0.14092  0.0937386978508
 H1 0.183558 0.201673 0.20458  0.0937386978508
 H1 0.183842 0.701659 0.20465  0.0937386978508
 H1 0.68357 0.201673 0.20458  0.0937386978508
 H1 0.683852 0.701658 0.20465  0.0937386978508
 H1 0.038523 0.341351 0.51507  0.0937386978508
 H1 0.038987 0.841423 0.51511  0.0937386978508
 H1 0.538523 0.341348 0.51507  0.0937386978508
 H1 0.53899 0.841423 0.51511  0.0937386978508
 H1 0.330695 0.23137 0.34352  0.0937386978508
 H1 0.331266 0.730874 0.34373  0.0937386978508
 H1 0.830708 0.231367 0.34352  0.0937386978508
 H1 0.831276 0.730874 0.3437  0.0937386978508
 H1 0.376215 0.347664 0.22199  0.0937386978508
 H1 0.376555 0.847712 0.22208  0.0937386978508
 H1 0.876228 0.347665 0.2219  0.0937386978508
 H1 0.876568 0.847712 0.22208  0.0937386978508
 H1 0.399205 0.195039 0.09536  0.0937386978508
 H1 0.399456 0.695067 0.09538  0.0937386978508
 H1 0.899218 0.195039 0.09536  0.0937386978508
 H1 0.899469 0.695067 0.09538  0.0937386978508
 H1 0.356593 0.003032 0.18655  0.0937386978508
 H1 0.356651 0.502913 0.18649  0.0937386978508
 H1 0.856606 0.003032 0.18655  0.0937386978508
 H1 0.856665 0.502914 0.18649  0.0937386978508
 H1 0.134879 0.473407 0.0533  0.0937386978508
 H1 0.134772 0.973271 0.05324  0.0937386978508
 H1 0.634892 0.473407 0.05336  0.0937386978508
 H1 0.634785 0.97327 0.05323  0.0937386978508
 H1 0.162656 0.082211 0.10923  0.0937386978508
 H1 0.162996 0.5824 0.10935  0.0937386978508
 H1 0.662668 0.08221 0.10923  0.0937386978508
 H1 0.663008 0.5824 0.10935  0.0937386978508
 H1 0.288536 0.150628 0.20618  0.0937386978508
 H1 0.288956 0.650715 0.20619  0.0937386978508
 H1 0.788548 0.150627 0.20618  0.0937386978508
 H1 0.78897 0.650716 0.20619  0.0937386978508
 H1 0.088131 0.49628 0.3315  0.0937386978508
 H1 0.088021 0.996412 0.33166  0.0937386978508
 H1 0.588144 0.49628 0.33155  0.0937386978508
 H1 0.588035 0.996411 0.33166  0.0937386978508
 H1 0.264231 0.437244 0.4007  0.0937386978508
 H1 0.264324 0.937557 0.4006  0.0937386978508
 H1 0.764245 0.437244 0.4007  0.0937386978508
 H1 0.764339 0.937558 0.40067  0.0937386978508
 H1 0.360311 0.045774 0.43150  0.0937386978508
 H1 0.360355 0.545423 0.43144  0.0937386978508
 H1 0.860325 0.045775 0.431  0.0937386978508
 H1 0.860368 0.545423 0.43143  0.0937386978508
 H1 0.318246 0.129851 0.42417  0.0937386978508
 H1 0.318449 0.629568 0.42390  0.0937386978508
 H1 0.818259 0.129851 0.42417  0.0937386978508
 H1 0.818461 0.629568 0.42390  0.0937386978508
 H1 0.408533 0.174973 0.85904  0.0937386978508
 H1 0.408865 0.67499 0.85914  0.0937386978508
 H1 0.908546 0.174973 0.85904  0.0937386978508
 H1 0.908878 0.67499 0.85914  0.0937386978508
 H1 0.316199 0.298321 0.79531  0.0937386978508
 H1 0.316483 0.798306 0.79538  0.0937386978508
 H1 0.816211 0.298322 0.79531  0.0937386978508
 H1 0.816495 0.798306 0.79538  0.0937386978508
 H1 0.461072 0.158557 0.48485  0.0937386978508
 H1 0.461537 0.658632 0.48489  0.0937386978508
 H1 0.961073 0.158556 0.48485  0.0937386978508
 H1 0.96154 0.658632 0.48489  0.0937386978508
 H1 0.168786 0.269093 0.6562  0.0937386978508
 H1 0.169358 0.768596 0.6564  0.0937386978508
 H1 0.668799 0.269091 0.65624  0.0937386978508
 H1 0.669368 0.768597 0.65644  0.0937386978508
 H1 0.123488 0.15227 0.77787  0.0937386978508
 H1 0.123825 0.652316 0.77797  0.0937386978508
 H1 0.623502 0.152271 0.77787  0.0937386978508
 H1 0.623838 0.652315 0.77797  0.0937386978508
 H1 0.100584 0.304914 0.90457  0.0937386978508
 H1 0.100836 0.804942 0.90460  0.0937386978508
 H1 0.600597 0.304914 0.90457  0.0937386978508
 H1 0.600849 0.804941 0.90460  0.0937386978508
 C1 0.169243 0.418573 0.79833  -0.176204159292
 C1 0.169504 0.918554 0.7983  -0.176204159292
 C1 0.669255 0.418571 0.79833  -0.176204159292
 C1 0.669517 0.918554 0.79831  -0.176204159292
 C2 0.185632 0.479596 0.83036  -0.024555409292
 C2 0.185759 0.97955 0.83034  -0.024555409292
 C2 0.685645 0.479596 0.83035  -0.024555409292
 C2 0.685772 0.979551 0.83034  -0.024555409292
 C1 0.256381 0.018417 0.88318  -0.176204159292
 C1 0.256307 0.518403 0.88315  -0.176204159292
 C1 0.756394 0.018417 0.88318  -0.176204159292
 C1 0.756319 0.518402 0.88314  -0.176204159292
 C2 0.310615 0.495724 0.9050  -0.024555409292
 C2 0.310767 0.995821 0.90517  -0.024555409292
 C2 0.810628 0.495722 0.90508  -0.024555409292
 C2 0.81078 0.995821 0.90517  -0.024555409292
 C2 0.294475 0.434878 0.87363  -0.024555409292
 C2 0.294758 0.935003 0.87372  -0.024555409292
 C2 0.794487 0.434877 0.87363  -0.024555409292
 C2 0.794771 0.935003 0.87372  -0.024555409292
 C2 0.224388 0.396676 0.82002  -0.024555409292
 C2 0.224723 0.896744 0.82005  -0.024555409292
 C2 0.7244 0.396675 0.8200  -0.024555409292
 C2 0.724735 0.896744 0.82005  -0.024555409292
 C3 0.093868 0.376914 0.74147  0.680423340708
 C3 0.094184 0.87682 0.74141  0.680423340708
 C3 0.593877 0.376912 0.74147  0.680423340708
 C3 0.594193 0.876817 0.74142  0.680423340708
 C3 0.275263 0.084299 0.91393  0.680423340708
 C3 0.275304 0.584303 0.9139  0.680423340708
 C3 0.775275 0.084298 0.91393  0.680423340708
 C3 0.775318 0.584302 0.91390  0.680423340708
 C1 0.299194 0.431612 0.6227  -0.176204159292
 C1 0.299364 0.931401 0.62258  -0.176204159292
 C1 0.799206 0.431611 0.62277  -0.176204159292
 C1 0.799374 0.931401 0.62259  -0.176204159292
 C2 0.352489 0.492913 0.64483  -0.024555409292
 C2 0.352586 0.99273 0.64473  -0.024555409292
 C2 0.852503 0.492912 0.64483  -0.024555409292
 C2 0.852598 0.992729 0.64473  -0.024555409292
 C1 0.329912 0.03983 0.63458  -0.176204159292
 C1 0.329912 0.540053 0.63457  -0.176204159292
 C1 0.829924 0.039829 0.63459  -0.176204159292
 C1 0.829925 0.540052 0.63458  -0.176204159292
 C2 0.252783 0.025415 0.60739  -0.024555409292
 C2 0.252804 0.525704 0.60736  -0.024555409292
 C2 0.752796 0.025415 0.60738  -0.024555409292
 C2 0.752818 0.525704 0.6073  -0.024555409292
 C2 0.19944 0.465081 0.58902  -0.024555409292
 C2 0.199499 0.964769 0.58895  -0.024555409292
 C2 0.699454 0.465081 0.58902  -0.024555409292
 C2 0.699511 0.964769 0.58895  -0.024555409292
 C2 0.222479 0.417934 0.59416  -0.024555409292
 C2 0.222629 0.917663 0.59397  -0.024555409292
 C2 0.722492 0.417934 0.59416  -0.024555409292
 C2 0.722641 0.917663 0.59397  -0.024555409292
 C3 0.324844 0.381922 0.63074  0.680423340708
 C3 0.325107 0.881748 0.63050  0.680423340708
 C3 0.824861 0.381922 0.63072  0.680423340708
 C3 0.825125 0.88175 0.63048  0.680423340708
 C3 0.387405 0.104991 0.64877  0.680423340708
 C3 0.387523 0.605169 0.64871  0.680423340708
 C3 0.887426 0.104985 0.64874  0.680423340708
 C3 0.887543 0.605164 0.64870  0.680423340708
 C4 0.101608 0.289526 0.16986  0.270225007375
 C4 0.101934 0.789542 0.16996  0.270225007375
 C4 0.60162 0.289527 0.16986  0.270225007375
 C4 0.601946 0.789541 0.16996  0.270225007375
 C4 0.149654 0.227631 0.20236  0.270225007375
 C4 0.149944 0.727622 0.20242  0.270225007375
 C4 0.649666 0.227632 0.20236  0.270225007375
 C4 0.649955 0.727621 0.20243  0.270225007375
 C4 0.478337 0.315963 0.48895  0.270225007375
 C4 0.478823 0.815864 0.48903  0.270225007375
 C4 0.978349 0.315963 0.48895  0.270225007375
 C4 0.978832 0.815864 0.48903  0.270225007375
 C4 0.37297 0.260472 0.40114  0.270225007375
 C4 0.373504 0.760078 0.40131  0.270225007375
 C4 0.872982 0.260469 0.40114  0.270225007375
 C4 0.873513 0.760078 0.40131  0.270225007375
 C4 0.367769 0.307403 0.1757  0.270225007375
 C4 0.368086 0.807455 0.17583  0.270225007375
 C4 0.867781 0.307403 0.1757  0.270225007375
 C4 0.868098 0.807454 0.17583  0.270225007375
 C4 0.380504 0.230606 0.11161  0.270225007375
 C4 0.38078 0.730647 0.11165  0.270225007375
 C4 0.880516 0.230605 0.11161  0.270225007375
 C4 0.880792 0.730646 0.11165  0.270225007375
 C1 0.33054 0.081427 0.20164  -0.176204159292
 C1 0.330799 0.581408 0.2016  -0.176204159292
 C1 0.830552 0.081426 0.20163  -0.176204159292
 C1 0.830811 0.581407 0.20162  -0.176204159292
 C2 0.314282 0.02043 0.16961  -0.024555409292
 C2 0.314406 0.520383 0.16959  -0.024555409292
 C2 0.814294 0.020429 0.16961  -0.024555409292
 C2 0.814419 0.520383 0.16959  -0.024555409292
 C1 0.243731 0.481578 0.11680  -0.176204159292
 C1 0.243658 0.981565 0.11677  -0.176204159292
 C1 0.743744 0.481578 0.11680  -0.176204159292
 C1 0.743671 0.981564 0.11677  -0.176204159292
 C2 0.189274 0.004163 0.09478  -0.024555409292
 C2 0.189423 0.504258 0.0948  -0.024555409292
 C2 0.689287 0.004162 0.09478  -0.024555409292
 C2 0.689436 0.504258 0.0948  -0.024555409292
 C2 0.205286 0.064981 0.1262  -0.024555409292
 C2 0.205567 0.565104 0.12632  -0.024555409292
 C2 0.705299 0.06498 0.12623  -0.024555409292
 C2 0.70558 0.565104 0.12632  -0.024555409292
 C2 0.275322 0.103239 0.17990  -0.024555409292
 C2 0.275654 0.603305 0.17993  -0.024555409292
 C2 0.775334 0.103238 0.17990  -0.024555409292
 C2 0.775667 0.603305 0.17993  -0.024555409292
 C3 0.405863 0.123159 0.25854  0.680423340708
 C3 0.406175 0.623063 0.2584  0.680423340708
 C3 0.905873 0.123157 0.25854  0.680423340708
 C3 0.906188 0.623062 0.25848  0.680423340708
 C3 0.224729 0.415676 0.08605  0.680423340708
 C3 0.224774 0.915683 0.0860  0.680423340708
 C3 0.724744 0.415677 0.08605  0.680423340708
 C3 0.724788 0.915681 0.0860  0.680423340708
 C1 0.200679 0.068578 0.37737  -0.176204159292
 C1 0.200846 0.568369 0.37719  -0.176204159292
 C1 0.700693 0.068578 0.37736  -0.176204159292
 C1 0.70086 0.568369 0.3771  -0.176204159292
 C2 0.147456 0.00725 0.3552  -0.024555409292
 C2 0.147551 0.507068 0.35511  -0.024555409292
 C2 0.647469 0.00725 0.35522  -0.024555409292
 C2 0.647563 0.507068 0.35512  -0.024555409292
 C1 0.170129 0.45993 0.3653  -0.176204159292
 C1 0.17013 0.960151 0.3653  -0.176204159292
 C1 0.670141 0.459929 0.36537  -0.176204159292
 C1 0.670143 0.96015 0.36537  -0.176204159292
 C2 0.247237 0.47428 0.392  -0.024555409292
 C2 0.247258 0.974565 0.39257  -0.024555409292
 C2 0.747249 0.474279 0.39260  -0.024555409292
 C2 0.747272 0.974565 0.39257  -0.024555409292
 C2 0.300543 0.035211 0.41100  -0.024555409292
 C2 0.3006 0.534903 0.41093  -0.024555409292
 C2 0.800557 0.035211 0.41100  -0.024555409292
 C2 0.800613 0.534902 0.41093  -0.024555409292
 C2 0.277413 0.082317 0.40597  -0.024555409292
 C2 0.277562 0.582048 0.40578  -0.024555409292
 C2 0.777427 0.082316 0.4059  -0.024555409292
 C2 0.777574 0.582048 0.40579  -0.024555409292
 C3 0.174937 0.11823 0.36945  0.680423340708
 C3 0.175199 0.618059 0.36919  0.680423340708
 C3 0.674947 0.118229 0.36945  0.680423340708
 C3 0.675202 0.618057 0.36922  0.680423340708
 C3 0.112527 0.394811 0.35123  0.680423340708
 C3 0.112639 0.89499 0.35119  0.680423340708
 C3 0.612526 0.394817 0.35126  0.680423340708
 C3 0.612649 0.894991 0.35120  0.680423340708
 C4 0.398108 0.210439 0.83000  0.270225007375
 C4 0.398432 0.710452 0.83010  0.270225007375
 C4 0.898119 0.210439 0.83000  0.270225007375
 C4 0.898444 0.710452 0.83010  0.270225007375
 C4 0.350096 0.272357 0.79753  0.270225007375
 C4 0.350387 0.772348 0.79760  0.270225007375
 C4 0.850107 0.272358 0.79753  0.270225007375
 C4 0.850398 0.772347 0.79760  0.270225007375
 C4 0.021229 0.184111 0.51093  0.270225007375
 C4 0.021715 0.684013 0.51101  0.270225007375
 C4 0.52124 0.184111 0.51093  0.270225007375
 C4 0.521724 0.684013 0.51101  0.270225007375
 C4 0.126548 0.239892 0.59865  0.270225007375
 C4 0.127083 0.739497 0.59882  0.270225007375
 C4 0.62656 0.239889 0.59865  0.270225007375
 C4 0.627092 0.739497 0.59882  0.270225007375
 C4 0.131957 0.192527 0.82413  0.270225007375
 C4 0.132273 0.692577 0.82420  0.270225007375
 C4 0.63197 0.192527 0.82413  0.270225007375
 C4 0.632284 0.692576 0.82420  0.270225007375
 C4 0.119262 0.269335 0.88831  0.270225007375
 C4 0.119538 0.769376 0.88834  0.270225007375
 C4 0.619274 0.269335 0.8883  0.270225007375
 C4 0.61955 0.769375 0.88834  0.270225007375
 N1 0.096527 0.220558 0.25101  -0.256697492625
 N1 0.096815 0.720547 0.25108  -0.256697492625
 N1 0.596537 0.220557 0.25101  -0.256697492625
 N1 0.596823 0.720545 0.25108  -0.256697492625
 N1 0.065483 0.260368 0.22962  -0.256697492625
 N1 0.065797 0.76038 0.2297  -0.256697492625
 N1 0.565494 0.260368 0.22962  -0.256697492625
 N1 0.565807 0.76038 0.2297  -0.256697492625
 N2 0.154843 0.270375 0.15051  -0.419400825959
 N2 0.155155 0.770379 0.15059  -0.419400825959
 N2 0.654855 0.270376 0.15051  -0.419400825959
 N2 0.655167 0.770379 0.15059  -0.419400825959
 N1 0.425025 0.309082 0.5372  -0.256697492625
 N1 0.425498 0.808817 0.53732  -0.256697492625
 N1 0.925036 0.309082 0.5372  -0.256697492625
 N1 0.925506 0.808818 0.53732  -0.256697492625
 N1 0.356588 0.273353 0.48009  -0.256697492625
 N1 0.357107 0.7729 0.48028  -0.256697492625
 N1 0.856599 0.27335 0.48009  -0.256697492625
 N1 0.857116 0.772901 0.4802  -0.256697492625
 N2 0.448124 0.286536 0.40355  -0.419400825959
 N2 0.44864 0.78636 0.40367  -0.419400825959
 N2 0.948135 0.286535 0.40355  -0.419400825959
 N2 0.948649 0.78636 0.40367  -0.419400825959
 N2 0.409611 0.274828 0.18525  -0.419400825959
 N2 0.409893 0.774848 0.18531  -0.419400825959
 N2 0.909623 0.274827 0.18525  -0.419400825959
 N2 0.909904 0.774847 0.18531  -0.419400825959
 N1 0.323389 0.235095 0.05950  -0.256697492625
 N1 0.323697 0.735177 0.0595  -0.256697492625
 N1 0.823401 0.235095 0.05950  -0.256697492625
 N1 0.82371 0.735176 0.05953  -0.256697492625
 N1 0.314839 0.284588 0.10109  -0.256697492625
 N1 0.315173 0.784678 0.1011  -0.256697492625
 N1 0.814852 0.284588 0.10109  -0.256697492625
 N1 0.815184 0.784677 0.10114  -0.256697492625
 N1 0.403228 0.279434 0.74888  -0.256697492625
 N1 0.403517 0.779423 0.74895  -0.256697492625
 N1 0.903237 0.279432 0.74888  -0.256697492625
 N1 0.903525 0.779421 0.74895  -0.256697492625
 N1 0.434244 0.2396 0.77025  -0.256697492625
 N1 0.434561 0.739612 0.77034  -0.256697492625
 N1 0.934254 0.239599 0.77025  -0.256697492625
 N1 0.93457 0.73961 0.77034  -0.256697492625
 N2 0.344885 0.229601 0.84937  -0.419400825959
 N2 0.345197 0.729603 0.84945  -0.419400825959
 N2 0.844898 0.229602 0.84937  -0.419400825959
 N2 0.845209 0.729603 0.84945  -0.419400825959
 N1 0.074553 0.191153 0.46264  -0.256697492625
 N1 0.075027 0.690889 0.46276  -0.256697492625
 N1 0.574564 0.191152 0.46264  -0.256697492625
 N1 0.575035 0.690888 0.4627  -0.256697492625
 N1 0.142945 0.227066 0.51969  -0.256697492625
 N1 0.143465 0.726615 0.51987  -0.256697492625
 N1 0.642957 0.227064 0.51969  -0.256697492625
 N1 0.643474 0.726615 0.51987  -0.256697492625
 N2 0.051411 0.213615 0.59629  -0.419400825959
 N2 0.051929 0.713437 0.59641  -0.419400825959
 N2 0.551423 0.213614 0.59629  -0.419400825959
 N2 0.551938 0.713438 0.59641  -0.419400825959
 N2 0.090151 0.225134 0.81464  -0.419400825959
 N2 0.090432 0.725153 0.81471  -0.419400825959
 N2 0.590162 0.225134 0.81464  -0.419400825959
 N2 0.590443 0.725152 0.81471  -0.419400825959
 N1 0.176344 0.264805 0.94042  -0.256697492625
 N1 0.176652 0.764886 0.94046  -0.256697492625
 N1 0.676357 0.264805 0.94042  -0.256697492625
 N1 0.676664 0.764885 0.94046  -0.256697492625
 N1 0.18487 0.215304 0.89881  -0.256697492625
 N1 0.185201 0.715393 0.89887  -0.256697492625
 N1 0.684883 0.215305 0.89881  -0.256697492625
 N1 0.685213 0.715392 0.89887  -0.256697492625
 O1 0.079102 0.321662 0.7146  -0.626607492625
 O1 0.079547 0.821588 0.71459  -0.626607492625
 O1 0.579112 0.32166 0.71461  -0.626607492625
 O1 0.57956 0.821587 0.71459  -0.626607492625
 O2 0.046687 0.400959 0.72266  -0.609474159292
 O2 0.046943 0.900798 0.7225  -0.609474159292
 O2 0.546697 0.400956 0.72266  -0.609474159292
 O2 0.546953 0.900795 0.72255  -0.609474159292
 O2 0.221924 0.102303 0.89268  -0.609474159292
 O2 0.222025 0.602375 0.89270  -0.609474159292
 O2 0.721938 0.102304 0.89268  -0.609474159292
 O2 0.722038 0.602374 0.89270  -0.609474159292
 O1 0.340287 0.120661 0.95623  -0.626607492625
 O1 0.340357 0.620617 0.956  -0.626607492625
 O1 0.840301 0.120661 0.95623  -0.626607492625
 O1 0.84037 0.620615 0.95619  -0.626607492625
 O2 0.279085 0.326369 0.59642  -0.609474159292
 O2 0.279451 0.826194 0.59608  -0.609474159292
 O2 0.779095 0.326367 0.59643  -0.609474159292
 O2 0.779459 0.826192 0.59609  -0.609474159292
 O2 0.391866 0.397557 0.67400  -0.609474159292
 O2 0.392114 0.89743 0.67387  -0.609474159292
 O2 0.891874 0.397555 0.67401  -0.609474159292
 O2 0.892121 0.897428 0.67388  -0.609474159292
 O2 0.450532 0.119713 0.70396  -0.609474159292
 O2 0.450606 0.619793 0.70393  -0.609474159292
 O2 0.950538 0.119713 0.70397  -0.609474159292
 O2 0.950615 0.619792 0.70394  -0.609474159292
 O1 0.373607 0.142748 0.60745  -0.626607492625
 O1 0.373879 0.642969 0.60735  -0.626607492625
 O1 0.873614 0.142751 0.60746  -0.626607492625
 O1 0.87389 0.642972 0.60736  -0.626607492625
 O1 0.420504 0.178391 0.28537  -0.626607492625
 O1 0.420948 0.678317 0.28534  -0.626607492625
 O1 0.920516 0.178389 0.28537  -0.626607492625
 O1 0.92096 0.678315 0.28535  -0.626607492625
 O2 0.453103 0.099179 0.27739  -0.609474159292
 O2 0.453357 0.599017 0.27728  -0.609474159292
 O2 0.953112 0.099176 0.27739  -0.609474159292
 O2 0.953366 0.599015 0.2772  -0.609474159292
 O2 0.27801 0.397604 0.10725  -0.609474159292
 O2 0.278112 0.897677 0.10727  -0.609474159292
 O2 0.778022 0.397603 0.10726  -0.609474159292
 O2 0.778126 0.897676 0.10727  -0.609474159292
 O1 0.159679 0.379364 0.0437  -0.626607492625
 O1 0.15975 0.879321 0.04372  -0.626607492625
 O1 0.659692 0.379363 0.04376  -0.626607492625
 O1 0.659764 0.879319 0.04372  -0.626607492625
 O2 0.220595 0.173786 0.40386  -0.609474159292
 O2 0.220956 0.673612 0.40352  -0.609474159292
 O2 0.720609 0.173786 0.40386  -0.609474159292
 O2 0.720972 0.673613 0.40351  -0.609474159292
 O2 0.10793 0.102548 0.32608  -0.609474159292
 O2 0.108171 0.60242 0.32595  -0.609474159292
 O2 0.607943 0.102548 0.3260  -0.609474159292
 O2 0.608187 0.602422 0.32594  -0.609474159292
 O2 0.049433 0.380188 0.29603  -0.609474159292
 O2 0.04951 0.880266 0.29600  -0.609474159292
 O2 0.549452 0.380184 0.29602  -0.609474159292
 O2 0.549526 0.880263 0.29600  -0.609474159292
 O1 0.126167 0.357018 0.39262  -0.626607492625
 O1 0.126441 0.857234 0.3925  -0.626607492625
 O1 0.626188 0.357013 0.39260  -0.626607492625
 O1 0.626459 0.857233 0.39250  -0.626607492625
