#======================================================================

# CRYSTAL DATA

#----------------------------------------------------------------------

data_VESTA_phase_1


_pd_phase_name                         MOF
_cell_length_a                         15.02600
_cell_length_b                         14.00100
_cell_length_c                         14.74100
_cell_angle_alpha                      62.37200
_cell_angle_beta                       59.45100
_cell_angle_gamma                      57.63600
_symmetry_space_group_name_H-M         "P 1"
_symmetry_Int_Tables_number            1

loop_
_symmetry_equiv_pos_as_xyz
   "x, y, z"

loop_
   _atom_site_label
   _atom_site_fract_x
   _atom_site_fract_y
   _atom_site_fract_z
 _atom_site_charge
 Cd1 0.950205 0.026529 0.63534  1.12108191176
 Cd1 0.612434 0.473868 0.86438  1.12108191176
 Cd1 0.049847 0.973506 0.36450  1.12108191176
 Cd1 0.387613 0.526164 0.13548  1.12108191176
 Cd2 0.705292 0.250256 0.74979  1.29938441176
 Cd2 0.294752 0.749779 0.25006  1.29938441176
 H1 0.656852 0.277287 0.2709  0.110912328431
 H1 0.799041 0.148541 0.36287  0.110912328431
 H1 0.809721 0.129526 0.986  0.110912328431
 H1 0.697919 0.430425 0.48607  0.110912328431
 H1 0.55916 0.560237 0.38858  0.110912328431
 H1 0.155235 0.91286 0.84659  0.110912328431
 H1 0.20543 0.222997 0.22737  0.110912328431
 H1 0.310443 0.352177 0.13504  0.110912328431
 H1 0.925925 0.369684 0.51401  0.110912328431
 H1 0.614326 0.069607 0.  0.110912328431
 H1 0.508159 0.93942 0.11189  0.110912328431
 H1 0.914324 0.588477 0.65260  0.110912328431
 H1 0.343196 0.722744 0.72890  0.110912328431
 H1 0.201016 0.851496 0.63697  0.110912328431
 H1 0.190297 0.870473 0.01369  0.110912328431
 H1 0.302141 0.569616 0.51377  0.110912328431
 H1 0.440885 0.439795 0.6112  0.110912328431
 H1 0.844782 0.087138 0.15329  0.110912328431
 H1 0.79462 0.777038 0.77247  0.110912328431
 H1 0.68961 0.647853 0.86481  0.110912328431
 H1 0.074127 0.630332 0.48586  0.110912328431
 H1 0.385723 0.930432 0.98572  0.110912328431
 H1 0.491887 0.060624 0.88793  0.110912328431
 H1 0.085731 0.411535 0.34726  0.110912328431
 C1 0.834558 0.202204 0.49304  0.709587745098
 C2 0.756853 0.281439 0.43092  -0.0829705882353
 C3 0.667667 0.310032 0.3172  -0.0792968382353
 C1 0.957937 0.046689 0.80952  0.709587745098
 C2 0.980613 0.023994 0.90679  -0.0829705882353
 C3 0.746565 0.238372 0.36898  -0.0792968382353
 C1 0.51083 0.500786 0.27250  0.709587745098
 C2 0.599338 0.425816 0.32505  -0.0829705882353
 C3 0.892625 0.073231 0.9931  -0.0792968382353
 C3 0.689557 0.397888 0.43769  -0.0792968382353
 C3 0.612131 0.469912 0.38401  -0.0792968382353
 C3 0.08801 0.950622 0.91414  -0.0792968382353
 C1 0.529683 0.298281 0.00619  0.709587745098
 C2 0.469171 0.218946 0.068  -0.0829705882353
 C3 0.295163 0.190211 0.18148  -0.0792968382353
 C1 0.814172 0.453797 0.69008  0.709587745098
 C2 0.911402 0.476311 0.59294  -0.0829705882353
 C3 0.353965 0.262106 0.1295  -0.0792968382353
 C1 0.284631 0.99878 0.22738  0.709587745098
 C2 0.350512 0.074101 0.17445  -0.0829705882353
 C3 0.959304 0.426324 0.50693  -0.0792968382353
 C3 0.525131 0.102226 0.06210  -0.0792968382353
 C3 0.466211 0.029995 0.1159  -0.0792968382353
 C3 0.952617 0.550099 0.58536  -0.0792968382353
 C1 0.165506 0.797841 0.506  0.709587745098
 C2 0.243204 0.7186 0.56892  -0.0829705882353
 C3 0.332381 0.69 0.68262  -0.0792968382353
 C1 0.042089 0.953321 0.19035  0.709587745098
 C2 0.019406 0.976006 0.09309  -0.0829705882353
 C3 0.253491 0.761665 0.63087  -0.0792968382353
 C1 0.489203 0.499237 0.72737  0.709587745098
 C2 0.400706 0.574214 0.67481  -0.0829705882353
 C3 0.107393 0.926768 0.00674  -0.0792968382353
 C3 0.310496 0.602149 0.56216  -0.0792968382353
 C3 0.387918 0.530122 0.61584  -0.0792968382353
 C3 0.912008 0.049376 0.08574  -0.0792968382353
 C1 0.470371 0.701752 0.99366  0.709587745098
 C2 0.53088 0.781089 0.93165  -0.0829705882353
 C3 0.704887 0.809827 0.81836  -0.0792968382353
 C1 0.185876 0.546225 0.30978  0.709587745098
 C2 0.08865 0.523705 0.40693  -0.0829705882353
 C3 0.646087 0.737928 0.87032  -0.0792968382353
 C1 0.715417 0.001263 0.77244  0.709587745098
 C2 0.649536 0.925939 0.82538  -0.0829705882353
 C3 0.040749 0.57369 0.49294  -0.0792968382353
 C3 0.474918 0.897812 0.93773  -0.0792968382353
 C3 0.533836 0.970046 0.88390  -0.0792968382353
 C3 0.047438 0.449914 0.41450  -0.0792968382353
 O1 0.907681 0.101429 0.47513  -0.651918088235
 O2 0.82827 0.230353 0.567  -0.634120588235
 O2 0.502951 0.451209 0.22437  -0.634120588235
 O2 0.858843 0.109041 0.80725  -0.634120588235
 O2 0.452393 0.605434 0.28133  -0.634120588235
 O2 0.039705 0.997509 0.73306  -0.634120588235
 O1 0.48394 0.399288 0.0238  -0.651918088235
 O2 0.626558 0.269899 0.93190  -0.634120588235
 O2 0.179353 0.048099 0.27589  -0.634120588235
 O2 0.775143 0.391364 0.69228  -0.634120588235
 O2 0.339569 0.894126 0.21855  -0.634120588235
 O2 0.770499 0.502945 0.76658  -0.634120588235
 O1 0.092375 0.89861 0.52472  -0.651918088235
 O2 0.171784 0.769687 0.43195  -0.634120588235
 O2 0.497082 0.548813 0.77550  -0.634120588235
 O2 0.141186 0.890973 0.19262  -0.634120588235
 O2 0.547633 0.394587 0.71855  -0.634120588235
 O2 0.960328 0.002513 0.26681  -0.634120588235
 O1 0.516125 0.600738 0.97605  -0.651918088235
 O2 0.373497 0.730126 0.06795  -0.634120588235
 O2 0.820695 0.951943 0.72393  -0.634120588235
 O2 0.224889 0.608681 0.30757  -0.634120588235
 O2 0.660481 0.105915 0.78128  -0.634120588235
 O2 0.229555 0.497066 0.23329  -0.634120588235
