#======================================================================

# CRYSTAL DATA

#----------------------------------------------------------------------

data_VESTA_phase_1


_pd_phase_name                         MOF
_cell_length_a                         13.59000
_cell_length_b                         13.59600
_cell_length_c                         13.60400
_cell_angle_alpha                      87.24800
_cell_angle_beta                       87.32000
_cell_angle_gamma                      87.46700
_symmetry_space_group_name_H-M         "P 1"
_symmetry_Int_Tables_number            1

loop_
_symmetry_equiv_pos_as_xyz
   "x, y, z"

loop_
   _atom_site_label
   _atom_site_fract_x
   _atom_site_fract_y
   _atom_site_fract_z
 _atom_site_charge
 Cu1 0.018355 0.584808 0.01976  0.898745833333
 Cu1 0.021199 0.021089 0.58377  0.898745833333
 Cu1 0.58387 0.021557 0.01927  0.898745833333
 Cu1 0.416187 0.981911 0.98036  0.898745833333
 Cu1 0.981818 0.981873 0.41636  0.898745833333
 Cu1 0.978619 0.417192 0.98070  0.898745833333
 H1 0.998351 0.435729 0.665  0.113379166667
 H1 0.666962 0.0 0.43472  0.113379166667
 H1 0.432936 0.666697 0.  0.113379166667
 H1 0.567394 0.001576 0.33475  0.113379166667
 H1 0.001103 0.336302 0.5657  0.113379166667
 H1 0.333046 0.566598 0.00071  0.113379166667
 H1 0.998231 0.567557 0.33516  0.113379166667
 H1 0.336423 0.001443 0.56545  0.113379166667
 H1 0.564328 0.336789 0.99963  0.113379166667
 H1 0.435399 0.0 0.66476  0.113379166667
 H1 0.0 0.666704 0.43445  0.113379166667
 H1 0.663422 0.436049 0.  0.113379166667
 H1 0.01643 0.73755 0.73655  0.113379166667
 H1 0.7375 0.015755 0.73694  0.113379166667
 H1 0.735445 0.738065 0.01589  0.113379166667
 H1 0.264943 0.987691 0.26343  0.113379166667
 H1 0.983398 0.265389 0.26399  0.113379166667
 H1 0.262312 0.264239 0.9837  0.113379166667
 C1 0.006454 0.551475 0.81692  0.680885833333
 C2 0.002301 0.512281 0.6389  -0.0333986111111
 C3 0.007577 0.582746 0.70996  -0.0845675
 C1 0.81834 0.00729 0.55105  0.680885833333
 C2 0.640427 0.003429 0.51120  -0.0333986111111
 C3 0.711296 0.007999 0.58203  -0.0845675
 C1 0.549555 0.818399 0.00802  0.680885833333
 C2 0.509511 0.640411 0.00363  -0.0333986111111
 C3 0.580377 0.711426 0.00850  -0.0845675
 C1 0.450761 0.99532 0.18316  0.680885833333
 C2 0.490751 0.998832 0.36107  -0.0333986111111
 C3 0.419965 0.994627 0.29011  -0.0845675
 C1 0.993172 0.184797 0.44968  0.680885833333
 C2 0.997259 0.362746 0.48925  -0.0333986111111
 C3 0.99202 0.291819 0.41870  -0.0845675
 C1 0.181557 0.449923 0.99306  0.680885833333
 C2 0.359522 0.490144 0.9972  -0.0333986111111
 C3 0.288615 0.419203 0.99216  -0.0845675
 C1 0.991171 0.451363 0.18364  0.680885833333
 C2 0.995808 0.490894 0.36149  -0.0333986111111
 C3 0.990845 0.420297 0.29056  -0.0845675
 C1 0.18473 0.995344 0.44948  0.680885833333
 C2 0.362767 0.998789 0.48890  -0.0333986111111
 C3 0.291668 0.994614 0.4183  -0.0845675
 C1 0.448784 0.184745 0.99214  0.680885833333
 C2 0.487693 0.362826 0.99671  -0.0333986111111
 C3 0.417228 0.291515 0.99165  -0.0845675
 C1 0.551042 0.007858 0.81670  0.680885833333
 C2 0.512103 0.003722 0.63867  -0.0333986111111
 C3 0.582556 0.008274 0.70988  -0.0845675
 C1 0.008992 0.818176 0.55044  0.680885833333
 C2 0.004031 0.640285 0.51105  -0.0333986111111
 C3 0.00905 0.711189 0.58166  -0.0845675
 C1 0.815338 0.551903 0.0073  0.680885833333
 C2 0.63721 0.512591 0.00323  -0.0333986111111
 C3 0.708441 0.58317 0.00807  -0.0845675
 C3 0.001779 0.539267 0.5379  -0.0845675
 C2 0.012115 0.682663 0.6815  -0.0333986111111
 C3 0.539275 0.002611 0.53775  -0.0845675
 C2 0.682634 0.01172 0.68181  -0.0333986111111
 C3 0.536191 0.539415 0.00211  -0.0845675
 C2 0.680297 0.683062 0.01187  -0.0333986111111
 C3 0.463854 0.999723 0.4620  -0.0845675
 C2 0.31998 0.991324 0.31844  -0.0333986111111
 C3 0.997886 0.463858 0.46243  -0.0845675
 C2 0.987646 0.320322 0.31892  -0.0333986111111
 C3 0.460637 0.463721 0.99833  -0.0845675
 C2 0.317211 0.319442 0.98805  -0.0333986111111
 O1 0.024502 0.617355 0.8768  -0.561689166667
 O1 0.986867 0.461952 0.84011  -0.561689166667
 O1 0.878339 0.025414 0.61688  -0.561689166667
 O1 0.841451 0.987912 0.46163  -0.561689166667
 O1 0.616222 0.878467 0.02391  -0.561689166667
 O1 0.459479 0.84138 0.99084  -0.561689166667
 O1 0.383985 0.979144 0.12348  -0.561689166667
 O1 0.540787 0.012733 0.15983  -0.561689166667
 O1 0.975227 0.124881 0.38375  -0.561689166667
 O1 0.012805 0.16168 0.53909  -0.561689166667
 O1 0.121483 0.383888 0.97522  -0.561689166667
 O1 0.158558 0.539387 0.01246  -0.561689166667
 O1 0.974773 0.384848 0.12380  -0.561689166667
 O1 0.008738 0.541368 0.16047  -0.561689166667
 O1 0.124597 0.979185 0.38313  -0.561689166667
 O1 0.161855 0.012715 0.53943  -0.561689166667
 O1 0.383003 0.124482 0.97415  -0.561689166667
 O1 0.538382 0.162083 0.01146  -0.561689166667
 O1 0.616874 0.026303 0.8766  -0.561689166667
 O1 0.461475 0.988382 0.83980  -0.561689166667
 O1 0.025297 0.878237 0.61675  -0.561689166667
 O1 0.991707 0.841226 0.46044  -0.561689166667
 O1 0.875639 0.618147 0.0237  -0.561689166667
 O1 0.838042 0.461984 0.98952  -0.561689166667
