#======================================================================

# CRYSTAL DATA

#----------------------------------------------------------------------

data_VESTA_phase_1


_pd_phase_name                         MOF
_cell_length_a                         13.20100
_cell_length_b                         23.70700
_cell_length_c                         16.26700
_cell_angle_alpha                      90.02300
_cell_angle_beta                       89.99500
_cell_angle_gamma                      90.00000
_symmetry_space_group_name_H-M         "P 1"
_symmetry_Int_Tables_number            1

loop_
_symmetry_equiv_pos_as_xyz
   "x, y, z"

loop_
   _atom_site_label
   _atom_site_fract_x
   _atom_site_fract_y
   _atom_site_fract_z
 _atom_site_charge
 Cd1 0.899554 0.719337 0.97268  0.855810539773
 Cd1 0.772462 0.472331 0.12083  0.855810539773
 Cd1 0.600438 0.780648 0.47257  0.855810539773
 Cd1 0.727572 0.027683 0.6208  0.855810539773
 Cd1 0.899588 0.280682 0.5273  0.855810539773
 Cd1 0.772452 0.527667 0.3792  0.855810539773
 Cd1 0.600459 0.219351 0.02748  0.855810539773
 Cd1 0.727558 0.972329 0.87923  0.855810539773
 Cd1 0.10044 0.280671 0.0273  0.855810539773
 Cd1 0.227531 0.527677 0.87922  0.855810539773
 Cd1 0.399557 0.21936 0.5274  0.855810539773
 Cd1 0.272421 0.972325 0.37923  0.855810539773
 Cd1 0.100407 0.719325 0.47267  0.855810539773
 Cd1 0.227541 0.47234 0.62083  0.855810539773
 Cd1 0.399534 0.780658 0.97257  0.855810539773
 Cd1 0.272436 0.027679 0.12082  0.855810539773
 H1 0.901527 0.744569 0.7660  0.0972451647727
 H1 0.611386 0.6945 0.99870  0.0972451647727
 H1 0.88594 0.078518 0.82187  0.0972451647727
 H1 0.867239 0.662456 0.31320  0.0972451647727
 H1 0.071503 0.101648 0.82269  0.0972451647727
 H1 0.124647 0.936766 0.92747  0.0972451647727
 H1 0.193664 0.028188 0.8777  0.0972451647727
 H1 0.850903 0.539579 0.77814  0.0972451647727
 H1 0.893585 0.690852 0.63384  0.0972451647727
 H1 0.868507 0.585867 0.63917  0.0972451647727
 H1 0.59861 0.755284 0.26589  0.0972451647727
 H1 0.888549 0.805508 0.4986  0.0972451647727
 H1 0.614112 0.421445 0.32172  0.0972451647727
 H1 0.632443 0.837643 0.81305  0.0972451647727
 H1 0.428539 0.398272 0.32256  0.0972451647727
 H1 0.375277 0.563152 0.42754  0.0972451647727
 H1 0.306327 0.4717 0.37776  0.0972451647727
 H1 0.64928 0.960285 0.27798  0.0972451647727
 H1 0.606535 0.808931 0.13371  0.0972451647727
 H1 0.631617 0.913913 0.13903  0.0972451647727
 H1 0.90157 0.255456 0.7340  0.0972451647727
 H1 0.611406 0.305523 0.50137  0.0972451647727
 H1 0.88592 0.921503 0.67816  0.0972451647727
 H1 0.867279 0.337548 0.18685  0.0972451647727
 H1 0.071485 0.898378 0.6773  0.0972451647727
 H1 0.124668 0.063268 0.57258  0.0972451647727
 H1 0.193652 0.971844 0.62226  0.0972451647727
 H1 0.850903 0.460442 0.72192  0.0972451647727
 H1 0.893616 0.309179 0.86622  0.0972451647727
 H1 0.868513 0.414162 0.86089  0.0972451647727
 H1 0.598603 0.244716 0.23416  0.0972451647727
 H1 0.888594 0.194482 0.00143  0.0972451647727
 H1 0.614094 0.578542 0.17835  0.0972451647727
 H1 0.632445 0.162366 0.68701  0.0972451647727
 H1 0.428521 0.601714 0.17748  0.0972451647727
 H1 0.375303 0.436836 0.07249  0.0972451647727
 H1 0.306331 0.528288 0.12227  0.0972451647727
 H1 0.649358 0.039722 0.22207  0.0972451647727
 H1 0.60656 0.191072 0.36634  0.0972451647727
 H1 0.631685 0.086093 0.36102  0.0972451647727
 H1 0.098471 0.255441 0.23403  0.0972451647727
 H1 0.388608 0.305508 0.00135  0.0972451647727
 H1 0.114054 0.921489 0.17818  0.0972451647727
 H1 0.132756 0.337552 0.68685  0.0972451647727
 H1 0.928492 0.898358 0.17735  0.0972451647727
 H1 0.875346 0.063243 0.07258  0.0972451647727
 H1 0.80633 0.971819 0.12227  0.0972451647727
 H1 0.149097 0.46043 0.22191  0.0972451647727
 H1 0.106419 0.309159 0.36621  0.0972451647727
 H1 0.131497 0.414143 0.36088  0.0972451647727
 H1 0.401379 0.244722 0.73416  0.0972451647727
 H1 0.111446 0.194498 0.50144  0.0972451647727
 H1 0.385879 0.578559 0.67834  0.0972451647727
 H1 0.367554 0.162365 0.18700  0.0972451647727
 H1 0.571452 0.601733 0.677  0.0972451647727
 H1 0.624716 0.436856 0.57251  0.0972451647727
 H1 0.693664 0.528308 0.62230  0.0972451647727
 H1 0.350705 0.039723 0.72206  0.0972451647727
 H1 0.393444 0.191075 0.86633  0.0972451647727
 H1 0.368362 0.086093 0.8610  0.0972451647727
 H1 0.098429 0.744554 0.26601  0.0972451647727
 H1 0.388589 0.694485 0.49869  0.0972451647727
 H1 0.114076 0.078503 0.32189  0.0972451647727
 H1 0.13272 0.662461 0.81320  0.0972451647727
 H1 0.92851 0.101628 0.32271  0.0972451647727
 H1 0.875326 0.93674 0.42747  0.0972451647727
 H1 0.806342 0.028163 0.37778  0.0972451647727
 H1 0.149096 0.539568 0.27813  0.0972451647727
 H1 0.106383 0.690833 0.13383  0.0972451647727
 H1 0.131487 0.58585 0.13916  0.0972451647727
 H1 0.401384 0.755291 0.76589  0.0972451647727
 H1 0.111402 0.805526 0.99863  0.0972451647727
 H1 0.385899 0.421463 0.82171  0.0972451647727
 H1 0.367538 0.83764 0.31303  0.0972451647727
 H1 0.571473 0.398292 0.82258  0.0972451647727
 H1 0.624691 0.563173 0.92756  0.0972451647727
 H1 0.693663 0.471721 0.87778  0.0972451647727
 H1 0.350633 0.960286 0.77798  0.0972451647727
 H1 0.393424 0.808933 0.63371  0.0972451647727
 H1 0.368301 0.913912 0.6390  0.0972451647727
 C1 0.8898 0.699015 0.76571  0.170850539773
 C2 0.724033 0.811995 0.97262  0.286385539773
 C2 0.844942 0.599529 0.14302  0.286385539773
 C2 0.847337 0.588385 0.05557  0.286385539773
 C2 0.856244 0.593151 0.92531  0.286385539773
 C3 0.866994 0.617674 0.8433  0.178045539773
 C4 0.636311 0.737889 0.99172  0.271805539773
 C3 0.969938 0.959782 0.9013  0.178045539773
 C2 0.814471 0.845162 0.95891  0.286385539773
 C2 0.925076 0.906864 0.92900  0.286385539773
 C1 0.941863 0.048552 0.84488  0.170850539773
 C4 0.85462 0.634528 0.26130  0.271805539773
 C5 0.044877 0.061024 0.84527  -0.105239460227
 C5 0.074618 0.969302 0.90349  -0.105239460227
 C5 0.112329 0.020495 0.87531  -0.105239460227
 C5 0.8616 0.584843 0.77186  -0.105239460227
 C5 0.884678 0.669137 0.6922  -0.105239460227
 C5 0.870846 0.610747 0.69556  -0.105239460227
 C1 0.61033 0.800839 0.26558  0.170850539773
 C2 0.775918 0.68798 0.47268  0.286385539773
 C2 0.655039 0.900506 0.6429  0.286385539773
 C2 0.652716 0.911612 0.55546  0.286385539773
 C2 0.643956 0.90678 0.42518  0.286385539773
 C3 0.633154 0.882223 0.34324  0.178045539773
 C4 0.863631 0.762111 0.49168  0.271805539773
 C3 0.530028 0.540168 0.40130  0.178045539773
 C2 0.685476 0.654808 0.45895  0.286385539773
 C2 0.574869 0.593087 0.42907  0.286385539773
 C1 0.558175 0.451401 0.3447  0.170850539773
 C4 0.645157 0.865548 0.76117  0.271805539773
 C5 0.455134 0.438906 0.3451  -0.105239460227
 C5 0.425323 0.530625 0.40351  -0.105239460227
 C5 0.387654 0.479417 0.37528  -0.105239460227
 C5 0.638593 0.915015 0.2717  -0.105239460227
 C5 0.61547 0.830676 0.19210  -0.105239460227
 C5 0.62931 0.889066 0.19543  -0.105239460227
 C1 0.889834 0.301009 0.73436  0.170850539773
 C2 0.724053 0.18803 0.52743  0.286385539773
 C2 0.844968 0.400477 0.35703  0.286385539773
 C2 0.847356 0.411623 0.44448  0.286385539773
 C2 0.856264 0.406865 0.57475  0.286385539773
 C3 0.867013 0.382345 0.65669  0.178045539773
 C4 0.636332 0.262135 0.50834  0.271805539773
 C3 0.969955 0.040245 0.59874  0.178045539773
 C2 0.81449 0.154864 0.54115  0.286385539773
 C2 0.925093 0.093164 0.57105  0.286385539773
 C1 0.941846 0.951471 0.65515  0.170850539773
 C4 0.85465 0.365475 0.2387  0.271805539773
 C5 0.044861 0.939003 0.65476  -0.105239460227
 C5 0.074636 0.030729 0.59655  -0.105239460227
 C5 0.112316 0.979535 0.62473  -0.105239460227
 C5 0.86161 0.415179 0.72820  -0.105239460227
 C5 0.884705 0.33089 0.80783  -0.105239460227
 C5 0.87086 0.389279 0.80450  -0.105239460227
 C1 0.610341 0.199163 0.23447  0.170850539773
 C2 0.775957 0.312009 0.02738  0.286385539773
 C2 0.655051 0.099502 0.85714  0.286385539773
 C2 0.652736 0.088395 0.944  0.286385539773
 C2 0.643987 0.093223 0.07487  0.286385539773
 C3 0.633189 0.11778 0.15681  0.178045539773
 C4 0.863673 0.237879 0.00837  0.271805539773
 C3 0.530043 0.45982 0.09875  0.178045539773
 C2 0.685513 0.345181 0.04111  0.286385539773
 C2 0.574896 0.406901 0.07099  0.286385539773
 C1 0.558166 0.548587 0.15528  0.170850539773
 C4 0.645166 0.134461 0.73889  0.271805539773
 C5 0.455125 0.561081 0.15487  -0.105239460227
 C5 0.425339 0.469362 0.09653  -0.105239460227
 C5 0.387657 0.520571 0.1247  -0.105239460227
 C5 0.638649 0.08499 0.22832  -0.105239460227
 C5 0.615498 0.169328 0.30795  -0.105239460227
 C5 0.629362 0.110939 0.30462  -0.105239460227
 C1 0.110198 0.300995 0.23434  0.170850539773
 C2 0.27596 0.188013 0.02742  0.286385539773
 C2 0.155053 0.40048 0.85703  0.286385539773
 C2 0.152659 0.411624 0.94448  0.286385539773
 C2 0.143751 0.406857 0.07474  0.286385539773
 C3 0.133002 0.382335 0.15668  0.178045539773
 C4 0.363683 0.262119 0.00833  0.271805539773
 C3 0.030055 0.040227 0.09875  0.178045539773
 C2 0.185523 0.154848 0.04115  0.286385539773
 C2 0.074917 0.093145 0.07105  0.286385539773
 C1 0.058131 0.951455 0.1551  0.170850539773
 C4 0.145379 0.365479 0.73875  0.271805539773
 C5 0.955118 0.938983 0.15478  -0.105239460227
 C5 0.925376 0.030706 0.09656  -0.105239460227
 C5 0.887665 0.979512 0.12474  -0.105239460227
 C5 0.138401 0.415166 0.22819  -0.105239460227
 C5 0.115324 0.330873 0.30782  -0.105239460227
 C5 0.129156 0.389263 0.30449  -0.105239460227
 C1 0.389656 0.199168 0.73447  0.170850539773
 C2 0.224076 0.312026 0.5273  0.286385539773
 C2 0.344955 0.099503 0.35713  0.286385539773
 C2 0.347278 0.088396 0.44458  0.286385539773
 C2 0.356036 0.093228 0.57487  0.286385539773
 C3 0.366835 0.117784 0.65681  0.178045539773
 C4 0.136363 0.237895 0.50837  0.271805539773
 C3 0.469965 0.459838 0.59875  0.178045539773
 C2 0.314517 0.345199 0.54110  0.286385539773
 C2 0.425123 0.406919 0.57099  0.286385539773
 C1 0.441817 0.548604 0.65528  0.170850539773
 C4 0.354838 0.13446 0.23888  0.271805539773
 C5 0.544857 0.5611 0.65488  -0.105239460227
 C5 0.574669 0.469382 0.59655  -0.105239460227
 C5 0.612338 0.52059 0.6247  -0.105239460227
 C5 0.361394 0.084992 0.72832  -0.105239460227
 C5 0.384514 0.169331 0.80794  -0.105239460227
 C5 0.370672 0.110941 0.80462  -0.105239460227
 C1 0.110165 0.699001 0.26570  0.170850539773
 C2 0.275942 0.811978 0.47262  0.286385539773
 C2 0.155032 0.599531 0.64302  0.286385539773
 C2 0.152642 0.588385 0.55557  0.286385539773
 C2 0.143733 0.593143 0.42530  0.286385539773
 C3 0.132986 0.617664 0.34336  0.178045539773
 C4 0.363663 0.737874 0.49171  0.271805539773
 C3 0.03004 0.959762 0.40131  0.178045539773
 C2 0.185506 0.845143 0.45890  0.286385539773
 C2 0.074901 0.906845 0.42900  0.286385539773
 C1 0.058149 0.048535 0.34490  0.170850539773
 C4 0.145348 0.634534 0.76130  0.271805539773
 C5 0.955134 0.061004 0.3452  -0.105239460227
 C5 0.925359 0.969278 0.40350  -0.105239460227
 C5 0.887679 0.020471 0.37532  -0.105239460227
 C5 0.138389 0.584831 0.27185  -0.105239460227
 C5 0.115294 0.669121 0.19222  -0.105239460227
 C5 0.129139 0.610732 0.19555  -0.105239460227
 C1 0.389647 0.800844 0.76558  0.170850539773
 C2 0.224037 0.688 0.97267  0.286385539773
 C2 0.344937 0.900505 0.14290  0.286385539773
 C2 0.347257 0.911613 0.05545  0.286385539773
 C2 0.356006 0.906785 0.92518  0.286385539773
 C3 0.366802 0.882228 0.84324  0.178045539773
 C4 0.136322 0.762129 0.9916  0.271805539773
 C3 0.469951 0.540188 0.90131  0.178045539773
 C2 0.314481 0.654828 0.95893  0.286385539773
 C2 0.425098 0.593106 0.92906  0.286385539773
 C1 0.441827 0.451419 0.84478  0.170850539773
 C4 0.354821 0.865546 0.2611  0.271805539773
 C5 0.544868 0.438925 0.84519  -0.105239460227
 C5 0.574655 0.530645 0.90352  -0.105239460227
 C5 0.612336 0.479436 0.87530  -0.105239460227
 C5 0.361341 0.915017 0.77172  -0.105239460227
 C5 0.384489 0.830678 0.69210  -0.105239460227
 C5 0.370625 0.889067 0.69542  -0.105239460227
 N1 0.733273 0.754987 0.98537  -0.421225460227
 N2 0.835192 0.538784 0.94148  -0.323186126894
 N3 0.830058 0.535947 0.02537  -0.279099460227
 N1 0.86413 0.62548 0.99460  -0.421225460227
 N1 0.881706 0.674342 0.83995  -0.421225460227
 N3 0.571712 0.781554 0.9841  -0.279099460227
 N2 0.628083 0.8299 0.97146  -0.323186126894
 N3 0.906374 0.820191 0.96433  -0.279099460227
 N3 0.82491 0.580457 0.27168  -0.279099460227
 N1 0.82265 0.899914 0.93702  -0.421225460227
 N3 0.818065 0.55764 0.19454  -0.279099460227
 N1 0.904551 0.999144 0.87215  -0.421225460227
 N2 0.977809 0.859796 0.9453  -0.323186126894
 N4 0.867955 0.648569 0.18172  -0.541169460227
 N1 0.766677 0.745007 0.48529  -0.421225460227
 N2 0.664968 0.961158 0.44137  -0.323186126894
 N3 0.670077 0.96403 0.52528  -0.279099460227
 N1 0.635981 0.874492 0.49447  -0.421225460227
 N1 0.618442 0.825553 0.3398  -0.421225460227
 N3 0.928233 0.718432 0.48425  -0.279099460227
 N2 0.871868 0.670072 0.47158  -0.323186126894
 N3 0.593574 0.679785 0.46436  -0.279099460227
 N3 0.674951 0.919606 0.771  -0.279099460227
 N1 0.677292 0.600038 0.43710  -0.421225460227
 N3 0.681918 0.942401 0.69447  -0.279099460227
 N1 0.595444 0.500822 0.37209  -0.421225460227
 N2 0.52214 0.640173 0.44535  -0.323186126894
 N4 0.631889 0.85149 0.68157  -0.541169460227
 N1 0.733294 0.245038 0.514  -0.421225460227
 N2 0.835204 0.461231 0.55858  -0.323186126894
 N3 0.83007 0.464061 0.47468  -0.279099460227
 N1 0.864155 0.374534 0.50546  -0.421225460227
 N1 0.881738 0.325678 0.66012  -0.421225460227
 N3 0.571734 0.218467 0.51589  -0.279099460227
 N2 0.628105 0.170121 0.5285  -0.323186126894
 N3 0.906392 0.179838 0.5357  -0.279099460227
 N3 0.824934 0.419545 0.22837  -0.279099460227
 N1 0.822669 0.10011 0.56303  -0.421225460227
 N3 0.818082 0.442363 0.30551  -0.279099460227
 N1 0.904565 0.000879 0.62789  -0.421225460227
 N2 0.977827 0.140234 0.55473  -0.323186126894
 N4 0.867986 0.351437 0.31833  -0.541169460227
 N1 0.766718 0.254983 0.01475  -0.421225460227
 N2 0.664998 0.038846 0.05867  -0.323186126894
 N3 0.670096 0.035978 0.97478  -0.279099460227
 N1 0.636006 0.125511 0.00558  -0.421225460227
 N1 0.618459 0.174449 0.1602  -0.421225460227
 N3 0.928274 0.281557 0.01581  -0.279099460227
 N2 0.871907 0.329917 0.02848  -0.323186126894
 N3 0.593612 0.320205 0.03569  -0.279099460227
 N3 0.674961 0.080404 0.72846  -0.279099460227
 N1 0.677321 0.399952 0.06296  -0.421225460227
 N3 0.681931 0.057609 0.80558  -0.279099460227
 N1 0.595446 0.499166 0.1279  -0.421225460227
 N2 0.522172 0.359816 0.05470  -0.323186126894
 N4 0.631894 0.148517 0.81849  -0.541169460227
 N1 0.26672 0.245021 0.01468  -0.421225460227
 N2 0.164797 0.461226 0.05857  -0.323186126894
 N3 0.169932 0.464062 0.97468  -0.279099460227
 N1 0.135868 0.374528 0.00545  -0.421225460227
 N1 0.11829 0.325667 0.1601  -0.421225460227
 N3 0.428282 0.218454 0.0158  -0.279099460227
 N2 0.37191 0.170108 0.0285  -0.323186126894
 N3 0.093619 0.179818 0.03573  -0.279099460227
 N3 0.17508 0.419552 0.72837  -0.279099460227
 N1 0.177342 0.100094 0.06303  -0.421225460227
 N3 0.181925 0.442369 0.80551  -0.279099460227
 N1 0.095442 0.000864 0.12790  -0.421225460227
 N2 0.022184 0.140214 0.05474  -0.323186126894
 N4 0.132043 0.351439 0.81833  -0.541169460227
 N1 0.233318 0.255 0.51475  -0.421225460227
 N2 0.335023 0.03885 0.55867  -0.323186126894
 N3 0.329918 0.035979 0.47477  -0.279099460227
 N1 0.364015 0.125516 0.50558  -0.421225460227
 N1 0.381545 0.174455 0.66023  -0.421225460227
 N3 0.071761 0.281573 0.51581  -0.279099460227
 N2 0.128125 0.329934 0.52847  -0.323186126894
 N3 0.40642 0.320222 0.53569  -0.279099460227
 N3 0.325042 0.080403 0.22845  -0.279099460227
 N1 0.322701 0.399969 0.56295  -0.421225460227
 N3 0.318077 0.057608 0.3055  -0.279099460227
 N1 0.404548 0.499183 0.62797  -0.421225460227
 N2 0.477853 0.359834 0.55470  -0.323186126894
 N4 0.368111 0.148517 0.3184  -0.541169460227
 N1 0.266701 0.75497 0.48536  -0.421225460227
 N2 0.164796 0.538778 0.44147  -0.323186126894
 N3 0.169926 0.535946 0.52537  -0.279099460227
 N1 0.135841 0.625473 0.49459  -0.421225460227
 N1 0.11826 0.674331 0.33994  -0.421225460227
 N3 0.428262 0.78154 0.48416  -0.279099460227
 N2 0.371891 0.829886 0.47146  -0.323186126894
 N3 0.093603 0.820171 0.46432  -0.279099460227
 N3 0.175065 0.580464 0.77168  -0.279099460227
 N1 0.177326 0.899898 0.43702  -0.421225460227
 N3 0.181915 0.557645 0.69454  -0.279099460227
 N1 0.09543 0.999127 0.37216  -0.421225460227
 N2 0.022168 0.859774 0.44532  -0.323186126894
 N4 0.132009 0.648571 0.68172  -0.541169460227
 N1 0.233277 0.745025 0.98530  -0.421225460227
 N2 0.334996 0.961163 0.94138  -0.323186126894
 N3 0.329897 0.964031 0.02527  -0.279099460227
 N1 0.363986 0.874497 0.99447  -0.421225460227
 N1 0.38153 0.825559 0.83981  -0.421225460227
 N3 0.07172 0.718451 0.98424  -0.279099460227
 N2 0.128087 0.670092 0.97157  -0.323186126894
 N3 0.406382 0.679803 0.96436  -0.279099460227
 N3 0.32503 0.919604 0.27159  -0.279099460227
 N1 0.322673 0.600056 0.937  -0.421225460227
 N3 0.318065 0.9424 0.1944  -0.279099460227
 N1 0.404547 0.500841 0.87208  -0.421225460227
 N2 0.477822 0.640193 0.9453  -0.323186126894
 N4 0.368091 0.85149 0.18155  -0.541169460227
