#======================================================================

# CRYSTAL DATA

#----------------------------------------------------------------------

data_VESTA_phase_1


_pd_phase_name                         MOF
_cell_length_a                         15.97600
_cell_length_b                         19.73600
_cell_length_c                         13.54500
_cell_angle_alpha                      109.66100
_cell_angle_beta                       105.44000
_cell_angle_gamma                      94.81700
_symmetry_space_group_name_H-M         "P 1"
_symmetry_Int_Tables_number            1

loop_
_symmetry_equiv_pos_as_xyz
   "x, y, z"

loop_
   _atom_site_label
   _atom_site_fract_x
   _atom_site_fract_y
   _atom_site_fract_z
 _atom_site_charge
 Zn1 0.190233 0.064581 0.75938  0.84685203125
 Zn1 0.190277 0.564334 0.75929  0.84685203125
 Zn1 0.69023 0.064578 0.75938  0.84685203125
 Zn1 0.690269 0.564339 0.75929  0.84685203125
 Zn1 0.309741 0.435644 0.24075  0.84685203125
 Zn1 0.309782 0.935404 0.24067  0.84685203125
 Zn1 0.809729 0.435645 0.24075  0.84685203125
 Zn1 0.809769 0.935402 0.24066  0.84685203125
 Zn2 0.999846 0.249901 0.4998  0.85485203125
 Zn2 0.000153 0.750084 0.50026  0.85485203125
 Zn2 0.499839 0.249903 0.49981  0.85485203125
 Zn2 0.500146 0.750086 0.5002  0.85485203125
 Zn2 0.249804 0.249822 0.49963  0.85485203125
 Zn2 0.250183 0.750155 0.5004  0.85485203125
 Zn2 0.749795 0.249821 0.49963  0.85485203125
 Zn2 0.750175 0.750154 0.50041  0.85485203125
 H1 0.036633 0.425347 0.61367  0.09842078125
 H1 0.036736 0.925503 0.61364  0.09842078125
 H1 0.536628 0.425348 0.61368  0.09842078125
 H1 0.536734 0.925506 0.61364  0.09842078125
 H1 0.303314 0.428898 0.63743  0.09842078125
 H1 0.303564 0.92926 0.63812  0.09842078125
 H1 0.803308 0.428899 0.6374  0.09842078125
 H1 0.803561 0.929258 0.63812  0.09842078125
 H1 0.015536 0.138584 0.63683  0.09842078125
 H1 0.015619 0.6384 0.63664  0.09842078125
 H1 0.51553 0.138585 0.63684  0.09842078125
 H1 0.515611 0.638403 0.6366  0.09842078125
 H1 0.270036 0.130267 0.61228  0.09842078125
 H1 0.270397 0.630522 0.61292  0.09842078125
 H1 0.770029 0.130269 0.61228  0.09842078125
 H1 0.770386 0.63052 0.61292  0.09842078125
 H1 0.422153 0.02695 0.83630  0.09842078125
 H1 0.422062 0.526641 0.83604  0.09842078125
 H1 0.922145 0.026952 0.8363  0.09842078125
 H1 0.922053 0.526642 0.8360  0.09842078125
 H1 0.160129 0.993548 0.03954  0.09842078125
 H1 0.160174 0.493712 0.03969  0.09842078125
 H1 0.660122 0.993552 0.03955  0.09842078125
 H1 0.660166 0.493714 0.039  0.09842078125
 H1 0.495748 0.141207 0.83718  0.09842078125
 H1 0.495665 0.641037 0.83749  0.09842078125
 H1 0.995743 0.14121 0.83718  0.09842078125
 H1 0.995661 0.641039 0.83749  0.09842078125
 H1 0.359701 0.276491 0.03879  0.09842078125
 H1 0.359609 0.776314 0.03910  0.09842078125
 H1 0.859695 0.276492 0.03879  0.09842078125
 H1 0.859604 0.776314 0.03910  0.09842078125
 H1 0.463269 0.074487 0.38643  0.09842078125
 H1 0.463375 0.574643 0.38640  0.09842078125
 H1 0.963259 0.074485 0.38642  0.09842078125
 H1 0.963365 0.574641 0.38639  0.09842078125
 H1 0.19643 0.070716 0.36189  0.09842078125
 H1 0.196682 0.571076 0.36257  0.09842078125
 H1 0.696422 0.070714 0.36190  0.09842078125
 H1 0.696673 0.571074 0.36258  0.09842078125
 H1 0.484394 0.361592 0.36344  0.09842078125
 H1 0.484474 0.861409 0.36325  0.09842078125
 H1 0.984381 0.361589 0.36343  0.09842078125
 H1 0.98446 0.861404 0.3632  0.09842078125
 H1 0.229598 0.369452 0.38709  0.09842078125
 H1 0.229955 0.869708 0.38774  0.09842078125
 H1 0.729584 0.369447 0.38708  0.09842078125
 H1 0.729944 0.869704 0.38773  0.09842078125
 H1 0.077937 0.473349 0.16399  0.09842078125
 H1 0.077848 0.973041 0.16373  0.09842078125
 H1 0.57793 0.473353 0.16399  0.09842078125
 H1 0.577839 0.973041 0.16373  0.09842078125
 H1 0.339827 0.506284 0.96034  0.09842078125
 H1 0.33987 0.0 0.96049  0.09842078125
 H1 0.839817 0.506282 0.96034  0.09842078125
 H1 0.839864 0.0 0.960  0.09842078125
 H1 0.004347 0.358954 0.16253  0.09842078125
 H1 0.004263 0.858783 0.16284  0.09842078125
 H1 0.504335 0.358954 0.16252  0.09842078125
 H1 0.504252 0.858781 0.16284  0.09842078125
 H1 0.140403 0.223679 0.96091  0.09842078125
 H1 0.140312 0.723503 0.96123  0.09842078125
 H1 0.640392 0.223677 0.96091  0.09842078125
 H1 0.6403 0.7235 0.96123  0.09842078125
 C1 0.09713 0.407514 0.60289  0.28060953125
 C1 0.097301 0.907716 0.60307  0.28060953125
 C1 0.597124 0.407515 0.60290  0.28060953125
 C1 0.597297 0.907717 0.60307  0.28060953125
 C1 0.232811 0.409745 0.61626  0.28060953125
 C1 0.233055 0.910051 0.61680  0.28060953125
 C1 0.732805 0.409747 0.61626  0.28060953125
 C1 0.733051 0.91005 0.61680  0.28060953125
 C1 0.075315 0.147262 0.61552  0.28060953125
 C1 0.075492 0.647217 0.61558  0.28060953125
 C1 0.575308 0.147263 0.61552  0.28060953125
 C1 0.575483 0.647218 0.61559  0.28060953125
 C1 0.204153 0.142793 0.60174  0.28060953125
 C1 0.204472 0.642972 0.60223  0.28060953125
 C1 0.704146 0.142794 0.6017  0.28060953125
 C1 0.704462 0.642971 0.60223  0.28060953125
 C2 0.095682 0.024478 0.85765  0.63962703125
 C2 0.09563 0.524306 0.85751  0.63962703125
 C2 0.595673 0.024471 0.85765  0.63962703125
 C2 0.595623 0.524313 0.85752  0.63962703125
 C3 0.045747 0.010493 0.92971  -0.12418546875
 C3 0.045724 0.510412 0.92965  -0.12418546875
 C3 0.54574 0.0105 0.92972  -0.12418546875
 C3 0.545714 0.510407 0.92965  -0.12418546875
 C4 0.455512 0.013958 0.90714  -0.07290796875
 C4 0.455461 0.513775 0.9069  -0.07290796875
 C4 0.955503 0.013957 0.9071  -0.07290796875
 C4 0.955452 0.513777 0.90699  -0.07290796875
 C4 0.090158 0.996385 0.02314  -0.07290796875
 C4 0.090182 0.496481 0.0232  -0.07290796875
 C4 0.59015 0.99639 0.02314  -0.07290796875
 C4 0.590174 0.496481 0.02322  -0.07290796875
 C4 0.497938 0.189604 0.90758  -0.07290796875
 C4 0.49785 0.689421 0.90792  -0.07290796875
 C4 0.997932 0.189607 0.90758  -0.07290796875
 C4 0.997846 0.689422 0.90792  -0.07290796875
 C4 0.421467 0.26538 0.02263  -0.07290796875
 C4 0.421379 0.7652 0.02296  -0.07290796875
 C4 0.921461 0.265382 0.02263  -0.07290796875
 C4 0.921374 0.7652 0.02296  -0.07290796875
 C3 0.419015 0.204499 0.9298  -0.12418546875
 C3 0.418926 0.704322 0.93016  -0.12418546875
 C3 0.919008 0.204503 0.92983  -0.12418546875
 C3 0.918921 0.704321 0.9301  -0.12418546875
 C2 0.332884 0.1546 0.85816  0.63962703125
 C2 0.332774 0.654458 0.85848  0.63962703125
 C2 0.83288 0.154597 0.85817  0.63962703125
 C2 0.832769 0.654462 0.85848  0.63962703125
 C1 0.4027 0.09227 0.39698  0.28060953125
 C1 0.402873 0.592471 0.39716  0.28060953125
 C1 0.90269 0.092267 0.39698  0.28060953125
 C1 0.902863 0.592469 0.39716  0.28060953125
 C1 0.26694 0.089928 0.38323  0.28060953125
 C1 0.267186 0.590232 0.38376  0.28060953125
 C1 0.766932 0.089925 0.38323  0.28060953125
 C1 0.767177 0.590231 0.38376  0.28060953125
 C1 0.424516 0.352771 0.38448  0.28060953125
 C1 0.424689 0.852727 0.38454  0.28060953125
 C1 0.924503 0.352768 0.38447  0.28060953125
 C1 0.924676 0.852722 0.3845  0.28060953125
 C1 0.295525 0.357006 0.39780  0.28060953125
 C1 0.295841 0.857186 0.39829  0.28060953125
 C1 0.795512 0.357001 0.39779  0.28060953125
 C1 0.795829 0.857183 0.39828  0.28060953125
 C2 0.404364 0.475678 0.14251  0.63962703125
 C2 0.404314 0.975519 0.14238  0.63962703125
 C2 0.904356 0.475682 0.1425  0.63962703125
 C2 0.904305 0.975513 0.14238  0.63962703125
 C3 0.454277 0.489588 0.07039  -0.12418546875
 C3 0.454251 0.989491 0.0703  -0.12418546875
 C3 0.954266 0.489579 0.07038  -0.12418546875
 C3 0.954245 0.989501 0.07032  -0.12418546875
 C4 0.044538 0.486215 0.09305  -0.07290796875
 C4 0.044489 0.986038 0.09290  -0.07290796875
 C4 0.544531 0.486221 0.09305  -0.07290796875
 C4 0.544479 0.986034 0.09290  -0.07290796875
 C4 0.409819 0.503517 0.97681  -0.07290796875
 C4 0.409841 0.0 0.97689  -0.07290796875
 C4 0.909808 0.503512 0.97681  -0.07290796875
 C4 0.909835 0.0 0.97690  -0.07290796875
 C4 0.002161 0.310572 0.09210  -0.07290796875
 C4 0.002073 0.810389 0.09243  -0.07290796875
 C4 0.50215 0.310572 0.09209  -0.07290796875
 C4 0.502062 0.810385 0.09243  -0.07290796875
 C4 0.078632 0.234793 0.97706  -0.07290796875
 C4 0.078546 0.734614 0.97739  -0.07290796875
 C4 0.578621 0.234793 0.97705  -0.07290796875
 C4 0.578534 0.734609 0.97739  -0.07290796875
 C3 0.081086 0.29567 0.06985  -0.12418546875
 C3 0.080998 0.795493 0.07018  -0.12418546875
 C3 0.581074 0.295671 0.06985  -0.12418546875
 C3 0.580986 0.795487 0.07019  -0.12418546875
 C2 0.167237 0.34553 0.14154  0.63962703125
 C2 0.167127 0.845391 0.14186  0.63962703125
 C2 0.667226 0.345529 0.14154  0.63962703125
 C2 0.667113 0.845395 0.14185  0.63962703125
 N1 0.103284 0.33816 0.55011  -0.30322046875
 N1 0.103575 0.838364 0.55048  -0.30322046875
 N1 0.603278 0.338161 0.55011  -0.30322046875
 N1 0.60357 0.838365 0.55048  -0.30322046875
 N1 0.191988 0.339495 0.55894  -0.30322046875
 N1 0.192328 0.839772 0.55954  -0.30322046875
 N1 0.691982 0.339496 0.55894  -0.30322046875
 N1 0.692323 0.839771 0.55955  -0.30322046875
 N2 0.175975 0.453603 0.6446  -0.39096796875
 N2 0.176108 0.953863 0.64494  -0.39096796875
 N2 0.67597 0.453605 0.64467  -0.39096796875
 N2 0.676105 0.953863 0.64494  -0.39096796875
 N1 0.08726 0.189195 0.55835  -0.30322046875
 N1 0.087549 0.689309 0.55867  -0.30322046875
 N1 0.587252 0.189195 0.55835  -0.30322046875
 N1 0.587539 0.68931 0.55868  -0.30322046875
 N1 0.171448 0.186114 0.54925  -0.30322046875
 N1 0.171832 0.68637 0.54985  -0.30322046875
 N1 0.67144 0.186115 0.54925  -0.30322046875
 N1 0.671822 0.686369 0.54985  -0.30322046875
 N2 0.146412 0.117388 0.643  -0.39096796875
 N2 0.1466 0.617375 0.64375  -0.39096796875
 N2 0.646407 0.117389 0.64360  -0.39096796875
 N2 0.64659 0.617376 0.64375  -0.39096796875
 N1 0.396418 0.16162 0.44957  -0.30322046875
 N1 0.396711 0.661824 0.44994  -0.30322046875
 N1 0.896409 0.161618 0.44957  -0.30322046875
 N1 0.896701 0.661822 0.44994  -0.30322046875
 N1 0.307662 0.160208 0.44049  -0.30322046875
 N1 0.308003 0.660484 0.44109  -0.30322046875
 N1 0.807653 0.160206 0.44049  -0.30322046875
 N1 0.807994 0.660483 0.44109  -0.30322046875
 N2 0.323894 0.04612 0.35510  -0.39096796875
 N2 0.32403 0.546378 0.35537  -0.39096796875
 N2 0.823885 0.046117 0.35510  -0.39096796875
 N2 0.82402 0.546376 0.35537  -0.39096796875
 N1 0.41245 0.310677 0.44138  -0.30322046875
 N1 0.412736 0.810792 0.44171  -0.30322046875
 N1 0.912438 0.310674 0.44138  -0.30322046875
 N1 0.912725 0.810789 0.44170  -0.30322046875
 N1 0.328161 0.31361 0.45018  -0.30322046875
 N1 0.328542 0.813866 0.45079  -0.30322046875
 N1 0.828148 0.313606 0.45018  -0.30322046875
 N1 0.828531 0.813863 0.45078  -0.30322046875
 N2 0.353407 0.382608 0.35630  -0.39096796875
 N2 0.353591 0.882597 0.35645  -0.39096796875
 N2 0.853393 0.382604 0.35629  -0.39096796875
 N2 0.853577 0.882592 0.35644  -0.39096796875
 O1 0.05602 0.03792 0.77195  -0.62314796875
 O1 0.055974 0.537756 0.77182  -0.62314796875
 O1 0.556014 0.037922 0.77195  -0.62314796875
 O1 0.555966 0.537756 0.77182  -0.62314796875
 O1 0.178563 0.024441 0.88287  -0.62314796875
 O1 0.178503 0.524216 0.88269  -0.62314796875
 O1 0.678554 0.024438 0.88287  -0.62314796875
 O1 0.678495 0.52422 0.88270  -0.62314796875
 O1 0.329685 0.098116 0.77315  -0.62314796875
 O1 0.329582 0.597932 0.77349  -0.62314796875
 O1 0.82968 0.098119 0.77315  -0.62314796875
 O1 0.829576 0.597933 0.77349  -0.62314796875
 O1 0.262571 0.167328 0.88278  -0.62314796875
 O1 0.262446 0.66725 0.88297  -0.62314796875
 O1 0.762566 0.167324 0.88279  -0.62314796875
 O1 0.762442 0.667251 0.8829  -0.62314796875
 O1 0.444017 0.462222 0.22820  -0.62314796875
 O1 0.443969 0.962055 0.22807  -0.62314796875
 O1 0.944007 0.462218 0.22820  -0.62314796875
 O1 0.943961 0.962056 0.22807  -0.62314796875
 O1 0.321495 0.47578 0.11734  -0.62314796875
 O1 0.321435 0.975557 0.11716  -0.62314796875
 O1 0.821486 0.475782 0.11734  -0.62314796875
 O1 0.821429 0.975561 0.11716  -0.62314796875
 O1 0.170425 0.402054 0.22653  -0.62314796875
 O1 0.17032 0.901872 0.22688  -0.62314796875
 O1 0.670414 0.402054 0.22653  -0.62314796875
 O1 0.67031 0.901869 0.22688  -0.62314796875
 O1 0.237568 0.332738 0.11706  -0.62314796875
 O1 0.237445 0.832664 0.11726  -0.62314796875
 O1 0.737556 0.33274 0.11705  -0.62314796875
 O1 0.73743 0.832665 0.11725  -0.62314796875
