#======================================================================

# CRYSTAL DATA

#----------------------------------------------------------------------

data_VESTA_phase_1


_pd_phase_name                         MOF
_cell_length_a                         16.20100
_cell_length_b                         21.51700
_cell_length_c                         18.87100
_cell_angle_alpha                      90.00000
_cell_angle_beta                       90.00900
_cell_angle_gamma                      90.00000
_symmetry_space_group_name_H-M         "P 1"
_symmetry_Int_Tables_number            1

loop_
_symmetry_equiv_pos_as_xyz
   "x, y, z"

loop_
   _atom_site_label
   _atom_site_fract_x
   _atom_site_fract_y
   _atom_site_fract_z
 _atom_site_charge
 Cd1 0.311967 0.375036 0.42065  0.813584166667
 Cd1 0.311994 0.874995 0.42065  0.813584166667
 Cd1 0.811979 0.375036 0.42065  0.813584166667
 Cd1 0.812007 0.874995 0.42065  0.813584166667
 Cd1 0.437987 0.12502 0.92063  0.813584166667
 Cd1 0.438037 0.624986 0.9206  0.813584166667
 Cd1 0.938 0.12502 0.92063  0.813584166667
 Cd1 0.93805 0.624986 0.92061  0.813584166667
 Cd1 0.187954 0.125022 0.57938  0.813584166667
 Cd1 0.187987 0.624984 0.57939  0.813584166667
 Cd1 0.687967 0.125022 0.57938  0.813584166667
 Cd1 0.687999 0.624984 0.57939  0.813584166667
 Cd1 0.061916 0.375035 0.07942  0.813584166667
 Cd1 0.061961 0.874995 0.07941  0.813584166667
 Cd1 0.561929 0.375034 0.07942  0.813584166667
 Cd1 0.561974 0.874995 0.07941  0.813584166667
 Cd2 0.490406 0.125035 0.26293  0.730724166667
 Cd2 0.490507 0.625013 0.26293  0.730724166667
 Cd2 0.990419 0.125035 0.26293  0.730724166667
 Cd2 0.99052 0.625013 0.26293  0.730724166667
 Cd2 0.25943 0.375008 0.76296  0.730724166667
 Cd2 0.259521 0.874981 0.76295  0.730724166667
 Cd2 0.759443 0.375008 0.76296  0.730724166667
 Cd2 0.759534 0.874981 0.76295  0.730724166667
 Cd2 0.009448 0.375005 0.73711  0.730724166667
 Cd2 0.009538 0.874984 0.73711  0.730724166667
 Cd2 0.509461 0.375005 0.73711  0.730724166667
 Cd2 0.509551 0.874984 0.73711  0.730724166667
 Cd2 0.240424 0.125038 0.23708  0.730724166667
 Cd2 0.240525 0.625009 0.23708  0.730724166667
 Cd2 0.740437 0.125038 0.23708  0.730724166667
 Cd2 0.740538 0.625009 0.23708  0.730724166667
 H1 0.4787 0.480901 0.36693  0.0691525
 H1 0.478606 0.980992 0.36  0.0691525
 H1 0.978713 0.480901 0.36693  0.0691525
 H1 0.978619 0.980992 0.36  0.0691525
 H1 0.22395 0.483115 0.32372  0.0691525
 H1 0.22388 0.983023 0.32368  0.0691525
 H1 0.723963 0.483115 0.32372  0.0691525
 H1 0.723893 0.983023 0.32368  0.0691525
 H1 0.271326 0.01905 0.86695  0.0691525
 H1 0.271253 0.51916 0.86687  0.0691525
 H1 0.771339 0.01905 0.86695  0.0691525
 H1 0.771266 0.519161 0.8668  0.0691525
 H1 0.026028 0.016993 0.82367  0.0691525
 H1 0.025975 0.51691 0.82368  0.0691525
 H1 0.526041 0.016994 0.82367  0.0691525
 H1 0.525988 0.516909 0.82368  0.0691525
 H1 0.021249 0.230953 0.63306  0.0691525
 H1 0.021295 0.730883 0.63313  0.0691525
 H1 0.521262 0.230953 0.63306  0.0691525
 H1 0.521308 0.730883 0.63313  0.0691525
 H1 0.275975 0.233049 0.67638  0.0691525
 H1 0.276053 0.733051 0.67631  0.0691525
 H1 0.775988 0.233049 0.67638  0.0691525
 H1 0.776066 0.733051 0.67631  0.0691525
 H1 0.228652 0.269161 0.13318  0.0691525
 H1 0.228716 0.769096 0.13311  0.0691525
 H1 0.728665 0.269161 0.13318  0.0691525
 H1 0.728729 0.769096 0.13311  0.0691525
 H1 0.473923 0.266969 0.17634  0.0691525
 H1 0.474019 0.766979 0.17641  0.0691525
 H1 0.973936 0.266969 0.17634  0.0691525
 H1 0.974032 0.766978 0.17641  0.0691525
 H1 0.021339 0.019027 0.63304  0.0691525
 H1 0.021254 0.519123 0.63312  0.0691525
 H1 0.521352 0.019027 0.63304  0.0691525
 H1 0.521266 0.519123 0.63312  0.0691525
 H1 0.276067 0.016991 0.67635  0.0691525
 H1 0.276007 0.5169 0.67632  0.0691525
 H1 0.77608 0.016991 0.67635  0.0691525
 H1 0.77602 0.5169 0.67632  0.0691525
 H1 0.228701 0.480858 0.13318  0.0691525
 H1 0.228618 0.980969 0.13309  0.0691525
 H1 0.728714 0.480858 0.1331  0.0691525
 H1 0.728631 0.980969 0.13309  0.0691525
 H1 0.473979 0.483108 0.17636  0.0691525
 H1 0.473916 0.983023 0.17637  0.0691525
 H1 0.973992 0.483108 0.17636  0.0691525
 H1 0.973929 0.983023 0.17637  0.0691525
 H1 0.478651 0.269129 0.3669  0.0691525
 H1 0.478703 0.769066 0.3669  0.0691525
 H1 0.978664 0.26913 0.36691  0.0691525
 H1 0.978715 0.769066 0.3669  0.0691525
 H1 0.223896 0.266974 0.3237  0.0691525
 H1 0.22398 0.766969 0.32365  0.0691525
 H1 0.72391 0.266975 0.32372  0.0691525
 H1 0.723992 0.766968 0.32365  0.0691525
 H1 0.271235 0.230927 0.86694  0.0691525
 H1 0.271294 0.730853 0.86686  0.0691525
 H1 0.771247 0.230926 0.8669  0.0691525
 H1 0.771307 0.730853 0.86686  0.0691525
 H1 0.025931 0.233035 0.82363  0.0691525
 H1 0.026023 0.733054 0.82370  0.0691525
 H1 0.525944 0.233035 0.82363  0.0691525
 H1 0.526036 0.733053 0.82370  0.0691525
 H1 0.48856 0.37507 0.54168  0.0691525
 H1 0.48862 0.874945 0.5416  0.0691525
 H1 0.988573 0.375069 0.54168  0.0691525
 H1 0.988633 0.874946 0.5416  0.0691525
 H1 0.232833 0.374997 0.58071  0.0691525
 H1 0.232903 0.874954 0.58073  0.0691525
 H1 0.732846 0.374997 0.58071  0.0691525
 H1 0.732915 0.874955 0.58073  0.0691525
 H1 0.2614 0.125072 0.04159  0.0691525
 H1 0.261477 0.624955 0.04160  0.0691525
 H1 0.761413 0.125072 0.04159  0.0691525
 H1 0.76149 0.624955 0.04160  0.0691525
 H1 0.017106 0.125075 0.08074  0.0691525
 H1 0.01719 0.625016 0.08071  0.0691525
 H1 0.517119 0.125075 0.08074  0.0691525
 H1 0.517203 0.625016 0.08071  0.0691525
 H1 0.011329 0.125066 0.45838  0.0691525
 H1 0.011396 0.624954 0.45836  0.0691525
 H1 0.511342 0.125066 0.45838  0.0691525
 H1 0.511409 0.624954 0.45836  0.0691525
 H1 0.267047 0.125063 0.41930  0.0691525
 H1 0.267123 0.625024 0.4193  0.0691525
 H1 0.76706 0.125062 0.41930  0.0691525
 H1 0.767136 0.625024 0.4193  0.0691525
 H1 0.238478 0.375069 0.95844  0.0691525
 H1 0.238546 0.874941 0.95845  0.0691525
 H1 0.73849 0.375069 0.95844  0.0691525
 H1 0.738559 0.874941 0.95845  0.0691525
 H1 0.482763 0.375004 0.91933  0.0691525
 H1 0.482839 0.874941 0.91930  0.0691525
 H1 0.982777 0.375004 0.91933  0.0691525
 H1 0.982852 0.874941 0.91930  0.0691525
 C1 0.41811 0.494301 0.34760  0.240144166667
 C1 0.41801 0.994348 0.34764  0.240144166667
 C1 0.918122 0.494302 0.34760  0.240144166667
 C1 0.918023 0.994348 0.34764  0.240144166667
 C1 0.288918 0.495387 0.32501  0.240144166667
 C1 0.288833 0.995338 0.32499  0.240144166667
 C1 0.788931 0.495387 0.32501  0.240144166667
 C1 0.788846 0.995338 0.32499  0.240144166667
 C1 0.331919 0.005681 0.84762  0.240144166667
 C1 0.331839 0.505742 0.84756  0.240144166667
 C1 0.831932 0.00568 0.84762  0.240144166667
 C1 0.831851 0.505742 0.84756  0.240144166667
 C1 0.461088 0.004681 0.82498  0.240144166667
 C1 0.46102 0.504641 0.82498  0.240144166667
 C1 0.961101 0.004681 0.82498  0.240144166667
 C1 0.961033 0.504641 0.82498  0.240144166667
 C1 0.081839 0.244324 0.65241  0.240144166667
 C1 0.081895 0.744272 0.65245  0.240144166667
 C1 0.581852 0.244325 0.65241  0.240144166667
 C1 0.581907 0.744272 0.65245  0.240144166667
 C1 0.211016 0.245347 0.67506  0.240144166667
 C1 0.211089 0.745336 0.67502  0.240144166667
 C1 0.711029 0.245347 0.67506  0.240144166667
 C1 0.711102 0.745336 0.67502  0.240144166667
 C1 0.168057 0.255758 0.15247  0.240144166667
 C1 0.16813 0.755711 0.15244  0.240144166667
 C1 0.668071 0.255758 0.15247  0.240144166667
 C1 0.668143 0.755711 0.15244  0.240144166667
 C1 0.038874 0.254687 0.17505  0.240144166667
 C1 0.038963 0.75468 0.17509  0.240144166667
 C1 0.538887 0.254687 0.17505  0.240144166667
 C1 0.538977 0.754681 0.17509  0.240144166667
 C1 0.081935 0.00567 0.65239  0.240144166667
 C1 0.081845 0.50572 0.65244  0.240144166667
 C1 0.581948 0.00567 0.65239  0.240144166667
 C1 0.581858 0.50572 0.65244  0.240144166667
 C1 0.211114 0.004678 0.67504  0.240144166667
 C1 0.211039 0.50463 0.67503  0.240144166667
 C1 0.711126 0.004677 0.67504  0.240144166667
 C1 0.711051 0.50463 0.67503  0.240144166667
 C1 0.168115 0.494276 0.15248  0.240144166667
 C1 0.168025 0.994338 0.15242  0.240144166667
 C1 0.668128 0.494276 0.15248  0.240144166667
 C1 0.668037 0.994338 0.15242  0.240144166667
 C1 0.038934 0.495376 0.17506  0.240144166667
 C1 0.038856 0.995336 0.17506  0.240144166667
 C1 0.538947 0.495376 0.17506  0.240144166667
 C1 0.538869 0.995336 0.17506  0.240144166667
 C1 0.418052 0.255743 0.34760  0.240144166667
 C1 0.418114 0.755694 0.34763  0.240144166667
 C1 0.918065 0.255744 0.34760  0.240144166667
 C1 0.918127 0.755694 0.34763  0.240144166667
 C1 0.288859 0.254687 0.32501  0.240144166667
 C1 0.288938 0.75467 0.32497  0.240144166667
 C1 0.788872 0.254687 0.32501  0.240144166667
 C1 0.788951 0.75467 0.32497  0.240144166667
 C1 0.331821 0.24431 0.84760  0.240144166667
 C1 0.331888 0.744257 0.84756  0.240144166667
 C1 0.831834 0.244309 0.84760  0.240144166667
 C1 0.831901 0.744258 0.84756  0.240144166667
 C1 0.460987 0.245336 0.82495  0.240144166667
 C1 0.461072 0.745334 0.82499  0.240144166667
 C1 0.961 0.245335 0.82495  0.240144166667
 C1 0.961085 0.745335 0.82499  0.240144166667
 C1 0.429008 0.375053 0.56817  0.240144166667
 C1 0.429075 0.874946 0.56816  0.240144166667
 C1 0.929021 0.375052 0.56817  0.240144166667
 C1 0.929088 0.874947 0.56816  0.240144166667
 C1 0.299225 0.375016 0.58839  0.240144166667
 C1 0.299297 0.874948 0.58840  0.240144166667
 C1 0.799238 0.375016 0.58839  0.240144166667
 C1 0.799309 0.874949 0.58840  0.240144166667
 C1 0.320943 0.125073 0.06811  0.240144166667
 C1 0.321025 0.624969 0.06811  0.240144166667
 C1 0.820956 0.125073 0.06811  0.240144166667
 C1 0.821038 0.624969 0.06811  0.240144166667
 C1 0.450725 0.125076 0.08839  0.240144166667
 C1 0.450811 0.625001 0.08837  0.240144166667
 C1 0.950737 0.125075 0.08839  0.240144166667
 C1 0.950824 0.625001 0.08837  0.240144166667
 C1 0.070875 0.125066 0.4318  0.240144166667
 C1 0.070948 0.624971 0.43187  0.240144166667
 C1 0.570887 0.125066 0.4318  0.240144166667
 C1 0.570961 0.624971 0.43187  0.240144166667
 C1 0.200653 0.125067 0.4116  0.240144166667
 C1 0.200732 0.625005 0.41165  0.240144166667
 C1 0.700665 0.125067 0.4116  0.240144166667
 C1 0.700745 0.625005 0.41165  0.240144166667
 C1 0.178929 0.375052 0.93193  0.240144166667
 C1 0.179003 0.874942 0.9319  0.240144166667
 C1 0.678942 0.375052 0.93193  0.240144166667
 C1 0.679016 0.874942 0.9319  0.240144166667
 C1 0.049143 0.37502 0.91167  0.240144166667
 C1 0.049221 0.87494 0.91165  0.240144166667
 C1 0.549156 0.37502 0.91167  0.240144166667
 C1 0.549234 0.87494 0.91165  0.240144166667
 I1 0.138017 0.375032 0.42316  -0.516135833333
 I1 0.138045 0.87497 0.42317  -0.516135833333
 I1 0.638029 0.375032 0.42316  -0.516135833333
 I1 0.638057 0.87497 0.42317  -0.516135833333
 I1 0.111927 0.125045 0.92301  -0.516135833333
 I1 0.111977 0.62499 0.92299  -0.516135833333
 I1 0.61194 0.125045 0.92301  -0.516135833333
 I1 0.61199 0.62499 0.92299  -0.516135833333
 I1 0.361904 0.125046 0.57686  -0.516135833333
 I1 0.361937 0.624987 0.57688  -0.516135833333
 I1 0.861917 0.125046 0.57686  -0.516135833333
 I1 0.861949 0.624987 0.57688  -0.516135833333
 I1 0.387977 0.375029 0.07705  -0.516135833333
 I1 0.38802 0.874971 0.07703  -0.516135833333
 I1 0.88799 0.37503 0.07705  -0.516135833333
 I1 0.888034 0.874971 0.07703  -0.516135833333
 N1 0.347521 0.461574 0.35930  -0.4585025
 N1 0.347456 0.961573 0.35932  -0.4585025
 N1 0.847534 0.461574 0.35930  -0.4585025
 N1 0.847469 0.961573 0.35932  -0.4585025
 N2 0.403895 0.045067 0.30875  -0.2514075
 N2 0.404025 0.545028 0.30874  -0.2514075
 N2 0.903908 0.045067 0.30875  -0.2514075
 N2 0.904038 0.545028 0.30874  -0.2514075
 N2 0.32043 0.045542 0.29408  -0.2514075
 N2 0.320553 0.545559 0.29411  -0.2514075
 N2 0.820443 0.045542 0.29408  -0.2514075
 N2 0.820566 0.545558 0.2941  -0.2514075
 N1 0.402476 0.038459 0.85929  -0.4585025
 N1 0.402432 0.538472 0.85925  -0.4585025
 N1 0.902489 0.038459 0.85929  -0.4585025
 N1 0.902445 0.538473 0.85925  -0.4585025
 N2 0.345906 0.454999 0.80873  -0.2514075
 N2 0.346021 0.954952 0.80874  -0.2514075
 N2 0.845919 0.454999 0.80873  -0.2514075
 N2 0.846034 0.954952 0.80874  -0.2514075
 N2 0.429375 0.454456 0.79410  -0.2514075
 N2 0.429483 0.954471 0.79408  -0.2514075
 N2 0.929388 0.454455 0.79410  -0.2514075
 N2 0.929496 0.954472 0.79408  -0.2514075
 N1 0.152409 0.211567 0.64073  -0.4585025
 N1 0.15247 0.71153 0.6407  -0.4585025
 N1 0.652422 0.211567 0.64073  -0.4585025
 N1 0.652483 0.71153 0.6407  -0.4585025
 N2 0.095937 0.295034 0.69130  -0.2514075
 N2 0.096004 0.794999 0.69130  -0.2514075
 N2 0.59595 0.295034 0.69130  -0.2514075
 N2 0.596016 0.794999 0.69130  -0.2514075
 N2 0.179401 0.295524 0.70597  -0.2514075
 N2 0.179478 0.795519 0.70593  -0.2514075
 N2 0.679414 0.295524 0.70597  -0.2514075
 N2 0.67949 0.795519 0.70593  -0.2514075
 N1 0.097479 0.288505 0.14078  -0.4585025
 N1 0.097559 0.788475 0.14078  -0.4585025
 N1 0.597492 0.288505 0.14078  -0.4585025
 N1 0.597571 0.788475 0.14078  -0.4585025
 N2 0.153964 0.205022 0.19131  -0.2514075
 N2 0.154045 0.704988 0.19131  -0.2514075
 N2 0.653978 0.205022 0.19131  -0.2514075
 N2 0.654058 0.704987 0.1913  -0.2514075
 N2 0.070495 0.204496 0.20593  -0.2514075
 N2 0.070586 0.704491 0.20598  -0.2514075
 N2 0.570508 0.204496 0.20593  -0.2514075
 N2 0.570599 0.70449 0.2059  -0.2514075
 N1 0.15249 0.038444 0.64071  -0.4585025
 N1 0.152434 0.538446 0.64074  -0.4585025
 N1 0.652503 0.038444 0.64071  -0.4585025
 N1 0.652447 0.538446 0.64074  -0.4585025
 N2 0.095931 0.454992 0.69130  -0.2514075
 N2 0.09605 0.954952 0.69129  -0.2514075
 N2 0.595943 0.454992 0.69130  -0.2514075
 N2 0.596062 0.954952 0.69129  -0.2514075
 N2 0.179404 0.454459 0.70593  -0.2514075
 N2 0.179516 0.954477 0.7059  -0.2514075
 N2 0.679417 0.454458 0.70593  -0.2514075
 N2 0.679528 0.954477 0.7059  -0.2514075
 N1 0.097523 0.461545 0.14080  -0.4585025
 N1 0.097468 0.961559 0.14075  -0.4585025
 N1 0.597536 0.461545 0.14080  -0.4585025
 N1 0.597481 0.961559 0.14075  -0.4585025
 N2 0.153921 0.045067 0.191  -0.2514075
 N2 0.154048 0.545019 0.1913  -0.2514075
 N2 0.653934 0.045067 0.191  -0.2514075
 N2 0.654061 0.545019 0.1913  -0.2514075
 N2 0.070459 0.045547 0.2059  -0.2514075
 N2 0.07058 0.545561 0.20594  -0.2514075
 N2 0.570472 0.045546 0.20596  -0.2514075
 N2 0.570593 0.545561 0.20594  -0.2514075
 N1 0.347479 0.288489 0.35930  -0.4585025
 N1 0.347543 0.788451 0.35930  -0.4585025
 N1 0.847492 0.288489 0.35930  -0.4585025
 N1 0.847556 0.788451 0.35930  -0.4585025
 N2 0.403942 0.205019 0.30874  -0.2514075
 N2 0.404018 0.704984 0.3087  -0.2514075
 N2 0.903954 0.205018 0.30874  -0.2514075
 N2 0.904031 0.704984 0.3087  -0.2514075
 N2 0.320469 0.204504 0.29411  -0.2514075
 N2 0.320556 0.704493 0.29406  -0.2514075
 N2 0.820481 0.204503 0.29411  -0.2514075
 N2 0.820569 0.704493 0.29406  -0.2514075
 N1 0.402391 0.211544 0.85926  -0.4585025
 N1 0.402468 0.711514 0.85925  -0.4585025
 N1 0.902404 0.211544 0.85926  -0.4585025
 N1 0.902481 0.711514 0.85925  -0.4585025
 N2 0.345908 0.295032 0.80874  -0.2514075
 N2 0.345978 0.794997 0.80873  -0.2514075
 N2 0.845921 0.295032 0.80874  -0.2514075
 N2 0.845991 0.794996 0.80873  -0.2514075
 N2 0.429367 0.295526 0.7940  -0.2514075
 N2 0.429449 0.795526 0.79411  -0.2514075
 N2 0.92938 0.295526 0.7940  -0.2514075
 N2 0.929461 0.795526 0.79411  -0.2514075
 N2 0.419758 0.375041 0.63840  -0.2514075
 N2 0.419844 0.87494 0.63840  -0.2514075
 N2 0.919771 0.375041 0.63840  -0.2514075
 N2 0.919856 0.87494 0.63840  -0.2514075
 N2 0.335908 0.375019 0.6514  -0.2514075
 N2 0.335996 0.874941 0.65143  -0.2514075
 N2 0.83592 0.37502 0.6514  -0.2514075
 N2 0.836009 0.874941 0.65143  -0.2514075
 N1 0.354788 0.375039 0.53434  -0.4585025
 N1 0.354846 0.874949 0.53434  -0.4585025
 N1 0.854801 0.375039 0.53434  -0.4585025
 N1 0.854858 0.874949 0.53434  -0.4585025
 N2 0.330173 0.125076 0.13835  -0.2514075
 N2 0.330272 0.624982 0.13835  -0.2514075
 N2 0.830186 0.125076 0.13835  -0.2514075
 N2 0.830285 0.624982 0.13835  -0.2514075
 N2 0.414022 0.125077 0.15141  -0.2514075
 N2 0.414123 0.625 0.151  -0.2514075
 N2 0.914035 0.125077 0.15141  -0.2514075
 N2 0.914136 0.625 0.151  -0.2514075
 N1 0.395174 0.125074 0.03431  -0.4585025
 N1 0.395248 0.62498 0.0343  -0.4585025
 N1 0.895187 0.125074 0.03431  -0.4585025
 N1 0.895262 0.62498 0.0343  -0.4585025
 N2 0.080106 0.125074 0.36164  -0.2514075
 N2 0.080199 0.624981 0.36164  -0.2514075
 N2 0.580118 0.125074 0.36164  -0.2514075
 N2 0.580212 0.624982 0.36164  -0.2514075
 N2 0.163953 0.125075 0.3486  -0.2514075
 N2 0.16405 0.625002 0.3486  -0.2514075
 N2 0.663966 0.125075 0.3486  -0.2514075
 N2 0.664063 0.625001 0.3486  -0.2514075
 N1 0.145104 0.125064 0.465  -0.4585025
 N1 0.145168 0.624984 0.46570  -0.4585025
 N1 0.645117 0.125064 0.465  -0.4585025
 N1 0.645181 0.624984 0.46570  -0.4585025
 N2 0.169682 0.375035 0.86169  -0.2514075
 N2 0.169771 0.874944 0.8616  -0.2514075
 N2 0.669695 0.375035 0.86169  -0.2514075
 N2 0.669784 0.874944 0.8616  -0.2514075
 N2 0.085831 0.375017 0.8486  -0.2514075
 N2 0.085923 0.874943 0.84863  -0.2514075
 N2 0.585844 0.375017 0.84864  -0.2514075
 N2 0.585936 0.874942 0.84863  -0.2514075
 N1 0.104706 0.375045 0.9657  -0.4585025
 N1 0.104772 0.874937 0.96572  -0.4585025
 N1 0.604719 0.375045 0.9657  -0.4585025
 N1 0.604785 0.874937 0.96572  -0.4585025
