#======================================================================

# CRYSTAL DATA

#----------------------------------------------------------------------

data_VESTA_phase_1


_pd_phase_name                         MOF
_cell_length_a                         15.13300
_cell_length_b                         17.67800
_cell_length_c                         17.67800
_cell_angle_alpha                      90.00000
_cell_angle_beta                       90.00000
_cell_angle_gamma                      90.00000
_symmetry_space_group_name_H-M         "P 1"
_symmetry_Int_Tables_number            1

loop_
_symmetry_equiv_pos_as_xyz
   "x, y, z"

loop_
   _atom_site_label
   _atom_site_fract_x
   _atom_site_fract_y
   _atom_site_fract_z
 _atom_site_charge
 Zn1 0.982769 0.858454 0.90818  0.959076086957
 Zn1 0.984265 0.151453 0.10127  0.959076086957
 Zn1 0.028641 0.909193 0.15118  0.959076086957
 Zn1 0.029043 0.100828 0.85828  0.959076086957
 Zn1 0.47599 0.858868 0.10125  0.959076086957
 Zn1 0.476346 0.15108 0.90820  0.959076086957
 Zn1 0.535408 0.908802 0.85832  0.959076086957
 Zn1 0.53693 0.101215 0.15119  0.959076086957
 Zn2 0.758392 0.861544 0.86121  1.06424608696
 Zn2 0.759913 0.148542 0.14817  1.06424608696
 Zn2 0.251596 0.861923 0.14814  1.06424608696
 Zn2 0.251982 0.148191 0.86123  1.06424608696
 H1 0.784884 0.875042 0.62355  0.103426503623
 H1 0.822601 0.891882 0.48750  0.103426503623
 H1 0.083773 0.906299 0.5469  0.103426503623
 H1 0.044369 0.886103 0.68236  0.103426503623
 H1 0.096801 0.84796 0.43285  0.103426503623
 H1 0.125917 0.856744 0.2945  0.103426503623
 H1 0.904056 0.967626 0.25639  0.103426503623
 H1 0.866898 0.968218 0.3934  0.103426503623
 H1 0.785366 0.905037 0.0196  0.103426503623
 H1 0.74633 0.767206 0.  0.103426503623
 H1 0.855844 0.741918 0.02112  0.103426503623
 H1 0.782913 0.784991 0.08853  0.103426503623
 H1 0.78612 0.134986 0.38572  0.103426503623
 H1 0.823611 0.118062 0.52181  0.103426503623
 H1 0.084874 0.10362 0.46267  0.103426503623
 H1 0.045695 0.123887 0.32722  0.103426503623
 H1 0.097732 0.161896 0.57680  0.103426503623
 H1 0.126574 0.153103 0.71515  0.103426503623
 H1 0.904578 0.042319 0.75297  0.103426503623
 H1 0.867694 0.041722 0.61582  0.103426503623
 H1 0.785695 0.104313 0.98966  0.103426503623
 H1 0.747617 0.24201 0.00652  0.103426503623
 H1 0.855642 0.267594 0.98854  0.103426503623
 H1 0.783026 0.22447 0.92091  0.103426503623
 H1 0.226178 0.624256 0.13541  0.103426503623
 H1 0.188659 0.488166 0.11865  0.103426503623
 H1 0.927485 0.547402 0.10337  0.103426503623
 H1 0.966674 0.682863 0.12353  0.103426503623
 H1 0.914558 0.432921 0.16182  0.103426503623
 H1 0.886343 0.294418 0.1532  0.103426503623
 H1 0.108842 0.257124 0.043  0.103426503623
 H1 0.145059 0.394409 0.04218  0.103426503623
 H1 0.227392 0.01992 0.10386  0.103426503623
 H1 0.265436 0.0 0.2407  0.103426503623
 H1 0.157905 0.01999 0.26731  0.103426503623
 H1 0.230416 0.08785 0.22445  0.103426503623
 H1 0.226248 0.386061 0.8739  0.103426503623
 H1 0.188359 0.522077 0.89068  0.103426503623
 H1 0.927333 0.462303 0.90588  0.103426503623
 H1 0.966897 0.326925 0.88575  0.103426503623
 H1 0.913966 0.576694 0.8476  0.103426503623
 H1 0.885226 0.71512 0.85629  0.103426503623
 H1 0.10775 0.753031 0.96617  0.103426503623
 H1 0.144502 0.615862 0.96700  0.103426503623
 H1 0.225507 0.990392 0.90599  0.103426503623
 H1 0.266409 0.006762 0.76915  0.103426503623
 H1 0.156635 0.990034 0.74235  0.103426503623
 H1 0.228986 0.922225 0.7855  0.103426503623
 H1 0.277858 0.875191 0.3856  0.103426503623
 H1 0.315299 0.891886 0.5218  0.103426503623
 H1 0.591276 0.906398 0.46277  0.103426503623
 H1 0.552155 0.886356 0.32728  0.103426503623
 H1 0.604009 0.847812 0.57682  0.103426503623
 H1 0.632808 0.856406 0.71520  0.103426503623
 H1 0.396242 0.96735 0.75310  0.103426503623
 H1 0.359404 0.968152 0.61592  0.103426503623
 H1 0.277154 0.904273 0.98964  0.103426503623
 H1 0.24002 0.767387 0.00641  0.103426503623
 H1 0.348095 0.741307 0.98804  0.103426503623
 H1 0.274949 0.784274 0.92074  0.103426503623
 H1 0.278414 0.134789 0.62355  0.103426503623
 H1 0.31615 0.118052 0.48748  0.103426503623
 H1 0.592014 0.103658 0.54696  0.103426503623
 H1 0.552586 0.123731 0.68238  0.103426503623
 H1 0.60505 0.162106 0.4329  0.103426503623
 H1 0.634202 0.15351 0.29462  0.103426503623
 H1 0.397699 0.042612 0.25629  0.103426503623
 H1 0.360498 0.041848 0.39338  0.103426503623
 H1 0.279049 0.105211 0.01952  0.103426503623
 H1 0.239623 0.241948 0.  0.103426503623
 H1 0.349107 0.268454 0.0214  0.103426503623
 H1 0.276347 0.225038 0.08880  0.103426503623
 H1 0.732974 0.623937 0.87385  0.103426503623
 H1 0.695518 0.487836 0.89063  0.103426503623
 H1 0.419654 0.547016 0.90620  0.103426503623
 H1 0.458777 0.682483 0.88598  0.103426503623
 H1 0.40661 0.432527 0.84791  0.103426503623
 H1 0.378458 0.294015 0.85657  0.103426503623
 H1 0.616009 0.256779 0.96615  0.103426503623
 H1 0.652147 0.394076 0.96705  0.103426503623
 H1 0.7341 0.019481 0.90578  0.103426503623
 H1 0.772397 0.0 0.768  0.103426503623
 H1 0.664889 0.019651 0.74225  0.103426503623
 H1 0.737279 0.087522 0.78525  0.103426503623
 H1 0.734278 0.386428 0.13538  0.103426503623
 H1 0.696418 0.522443 0.11864  0.103426503623
 H1 0.420665 0.46272 0.10364  0.103426503623
 H1 0.460204 0.32735 0.12381  0.103426503623
 H1 0.407275 0.577053 0.16174  0.103426503623
 H1 0.378443 0.715455 0.15303  0.103426503623
 H1 0.615698 0.75346 0.04324  0.103426503623
 H1 0.652531 0.616312 0.04243  0.103426503623
 H1 0.733404 0.990779 0.10355  0.103426503623
 H1 0.774236 0.007186 0.24038  0.103426503623
 H1 0.664451 0.99047 0.26717  0.103426503623
 H1 0.736812 0.922642 0.22406  0.103426503623
 C1 0.919762 0.878627 0.66097  0.00938608695652
 C2 0.853342 0.881749 0.60580  -0.13409807971
 C2 0.874787 0.892155 0.53002  -0.13409807971
 C1 0.963402 0.899962 0.50711  0.00938608695652
 C2 0.014833 0.898284 0.56307  -0.13409807971
 C2 0.0 0.887551 0.63886  -0.13409807971
 C1 0.985458 0.90672 0.42600  0.00938608695652
 C2 0.049498 0.876597 0.39625  -0.13409807971
 C3 0.065701 0.880207 0.31902  0.179956086957
 C3 0.948188 0.942215 0.29786  0.179956086957
 C2 0.927499 0.941115 0.37434  -0.13409807971
 C4 0.896768 0.866378 0.74295  0.646906086957
 C5 0.836028 0.862682 0.00452  0.186376086957
 C4 0.919566 0.881248 0.0494  0.646906086957
 C6 0.803302 0.784164 0.02896  -0.377103913043
 C1 0.921053 0.131394 0.34847  0.00938608695652
 C2 0.854544 0.128244 0.40356  -0.13409807971
 C2 0.875863 0.117804 0.47935  -0.13409807971
 C1 0.96444 0.109969 0.50236  0.00938608695652
 C2 0.015966 0.111661 0.44648  -0.13409807971
 C2 0.0 0.122425 0.37066  -0.13409807971
 C1 0.986346 0.103186 0.58348  0.00938608695652
 C2 0.050351 0.133271 0.61333  -0.13409807971
 C3 0.066393 0.12967 0.69059  0.179956086957
 C3 0.948799 0.06771 0.71156  0.179956086957
 C2 0.928271 0.068799 0.63505  -0.13409807971
 C4 0.89815 0.143664 0.26648  0.646906086957
 C5 0.836186 0.146778 0.  0.186376086957
 C4 0.919833 0.12853 0.95997  0.646906086957
 C6 0.80325 0.225244 0.98052  -0.377103913043
 C1 0.091297 0.661563 0.13142  0.00938608695652
 C2 0.157772 0.606438 0.12852  -0.13409807971
 C2 0.136438 0.530653 0.11816  -0.13409807971
 C1 0.047884 0.507664 0.11012  0.00938608695652
 C2 0.996378 0.563569 0.11156  -0.13409807971
 C2 0.003016 0.639408 0.12226  -0.13409807971
 C1 0.026149 0.426497 0.10340  0.00938608695652
 C2 0.962183 0.396471 0.13338  -0.13409807971
 C3 0.946503 0.319142 0.12993  0.179956086957
 C3 0.064363 0.298452 0.06830  0.179956086957
 C2 0.084517 0.375035 0.06921  -0.13409807971
 C4 0.114413 0.743508 0.14360  0.646906086957
 C5 0.177001 0.004476 0.14632  0.186376086957
 C4 0.093329 0.049533 0.12863  0.646906086957
 C6 0.210175 0.028238 0.22489  -0.377103913043
 C1 0.091454 0.348487 0.87791  0.00938608695652
 C2 0.157786 0.403741 0.88082  -0.13409807971
 C2 0.136245 0.479492 0.89115  -0.13409807971
 C1 0.047624 0.50232 0.89917  0.00938608695652
 C2 0.996273 0.44628 0.89771  -0.13409807971
 C2 0.003115 0.370486 0.88702  -0.13409807971
 C1 0.025621 0.58344 0.90591  0.00938608695652
 C2 0.9615 0.613268 0.87602  -0.13409807971
 C3 0.94552 0.690554 0.87952  0.179956086957
 C3 0.063384 0.711591 0.94100  0.179956086957
 C2 0.083841 0.635064 0.94004  -0.13409807971
 C4 0.114688 0.266559 0.86576  0.646906086957
 C5 0.175244 0.0 0.86336  0.186376086957
 C4 0.091609 0.960549 0.88092  0.646906086957
 C6 0.208741 0.981833 0.78492  -0.377103913043
 C1 0.412805 0.878825 0.3484  0.00938608695652
 C2 0.346276 0.881896 0.40354  -0.13409807971
 C2 0.367566 0.892209 0.47935  -0.13409807971
 C1 0.456132 0.899994 0.50240  0.00938608695652
 C2 0.522373 0.898392 0.44654  -0.13409807971
 C2 0.50109 0.887754 0.37070  -0.13409807971
 C1 0.478004 0.906635 0.58354  0.00938608695652
 C2 0.55665 0.876435 0.61338  -0.13409807971
 C3 0.572668 0.879926 0.69064  0.179956086957
 C3 0.440444 0.941976 0.71166  0.179956086957
 C2 0.419944 0.941001 0.63514  -0.13409807971
 C4 0.389927 0.866681 0.26644  0.646906086957
 C5 0.327898 0.862011 0.  0.186376086957
 C4 0.411477 0.880721 0.95995  0.646906086957
 C6 0.295406 0.783436 0.98029  -0.377103913043
 C1 0.41329 0.131202 0.66097  0.00938608695652
 C2 0.346875 0.128105 0.60579  -0.13409807971
 C2 0.368331 0.117761 0.53001  -0.13409807971
 C1 0.456953 0.11 0.50710  0.00938608695652
 C2 0.523071 0.111644 0.56306  -0.13409807971
 C2 0.501622 0.122309 0.63887  -0.13409807971
 C1 0.479031 0.103332 0.42  0.00938608695652
 C2 0.557765 0.133507 0.39630  -0.13409807971
 C3 0.573987 0.130004 0.31906  0.179956086957
 C3 0.441807 0.067988 0.29780  0.179956086957
 C2 0.421097 0.068986 0.37428  -0.13409807971
 C4 0.390294 0.143387 0.74295  0.646906086957
 C5 0.329603 0.147708 0.00454  0.186376086957
 C4 0.413171 0.129172 0.04945  0.646906086957
 C6 0.29668 0.226084 0.02922  -0.377103913043
 C1 0.598092 0.661207 0.87798  0.00938608695652
 C2 0.664585 0.606097 0.88081  -0.13409807971
 C2 0.643285 0.530311 0.89117  -0.13409807971
 C1 0.554749 0.507305 0.89931  0.00938608695652
 C2 0.488531 0.563196 0.89793  -0.13409807971
 C2 0.509826 0.639038 0.8872  -0.13409807971
 C1 0.533056 0.426135 0.90607  0.00938608695652
 C2 0.454328 0.39609 0.87625  -0.13409807971
 C3 0.438683 0.318758 0.87973  0.179956086957
 C3 0.571425 0.298094 0.94107  0.179956086957
 C2 0.59154 0.374685 0.94014  -0.13409807971
 C4 0.621196 0.743146 0.86578  0.646906086957
 C5 0.683779 0.004073 0.86325  0.186376086957
 C4 0.600091 0.049127 0.88088  0.646906086957
 C6 0.717081 0.027902 0.78474  -0.377103913043
 C1 0.599466 0.348877 0.13153  0.00938608695652
 C2 0.665813 0.404117 0.1285  -0.13409807971
 C2 0.644285 0.479873 0.11822  -0.13409807971
 C1 0.555664 0.50272 0.11025  0.00938608695652
 C2 0.489609 0.446691 0.11177  -0.13409807971
 C2 0.511129 0.370898 0.12247  -0.13409807971
 C1 0.533646 0.583839 0.10350  0.00938608695652
 C2 0.454801 0.613641 0.13335  -0.13409807971
 C3 0.43877 0.690919 0.12983  0.179956086957
 C3 0.571344 0.712005 0.06840  0.179956086957
 C2 0.591847 0.635485 0.0693  -0.13409807971
 C4 0.622657 0.266938 0.14368  0.646906086957
 C5 0.683113 0.0 0.14615  0.186376086957
 C4 0.599495 0.960941 0.12856  0.646906086957
 C6 0.716573 0.982251 0.22461  -0.377103913043
 N1 0.008305 0.911785 0.26998  -0.325283913043
 N1 0.008877 0.098119 0.73954  -0.325283913043
 N1 0.0 0.270301 0.0986  -0.325283913043
 N1 0.0 0.739556 0.91075  -0.325283913043
 N1 0.515176 0.911475 0.73961  -0.325283913043
 N1 0.516608 0.098479 0.26997  -0.325283913043
 N1 0.496637 0.269927 0.91088  -0.325283913043
 N1 0.496453 0.739945 0.0986  -0.325283913043
 O1 0.95984 0.858325 0.78883  -0.589348913043
 O1 0.813754 0.865368 0.75818  -0.589348913043
 O2 0.853348 0.865312 0.93505  -0.736203913043
 O1 0.993955 0.880917 0.01582  -0.589348913043
 O1 0.912614 0.893529 0.12017  -0.589348913043
 O1 0.961256 0.151633 0.22063  -0.589348913043
 O1 0.815145 0.144795 0.2512  -0.589348913043
 O2 0.854901 0.144067 0.07436  -0.736203913043
 O1 0.994199 0.129026 0.99363  -0.589348913043
 O1 0.912969 0.116349 0.88923  -0.589348913043
 O1 0.051569 0.789613 0.15154  -0.589348913043
 O1 0.197481 0.758568 0.14475  -0.589348913043
 O2 0.157606 0.936175 0.14232  -0.736203913043
 O1 0.018964 0.015887 0.12939  -0.589348913043
 O1 0.100273 0.120302 0.11667  -0.589348913043
 O1 0.051867 0.22041 0.85788  -0.589348913043
 O1 0.197769 0.251554 0.86460  -0.589348913043
 O2 0.158028 0.073966 0.86716  -0.736203913043
 O1 0.017204 0.994118 0.88009  -0.589348913043
 O1 0.098653 0.889779 0.89286  -0.589348913043
 O1 0.453046 0.85867 0.22061  -0.589348913043
 O1 0.30693 0.865687 0.25115  -0.589348913043
 O2 0.346573 0.865736 0.07429  -0.736203913043
 O1 0.485825 0.880374 0.99365  -0.589348913043
 O1 0.404621 0.893121 0.88925  -0.589348913043
 O1 0.453366 0.15133 0.78885  -0.589348913043
 O1 0.307279 0.144466 0.75817  -0.589348913043
 O2 0.346938 0.144251 0.93506  -0.736203913043
 O1 0.487554 0.129567 0.01582  -0.589348913043
 O1 0.406224 0.116842 0.12016  -0.589348913043
 O1 0.558347 0.789254 0.85790  -0.589348913043
 O1 0.704262 0.758204 0.86458  -0.589348913043
 O2 0.664384 0.93577 0.86715  -0.736203913043
 O1 0.525724 0.015485 0.88009  -0.589348913043
 O1 0.607032 0.119898 0.89283  -0.589348913043
 O1 0.559815 0.220815 0.15159  -0.589348913043
 O1 0.705736 0.251906 0.14480  -0.589348913043
 O2 0.665893 0.074355 0.14231  -0.736203913043
 O1 0.525086 0.994509 0.12937  -0.589348913043
 O1 0.606548 0.890173 0.11663  -0.589348913043
