#======================================================================

# CRYSTAL DATA

#----------------------------------------------------------------------

data_VESTA_phase_1


_pd_phase_name                         MOF
_cell_length_a                         14.36400
_cell_length_b                         12.41700
_cell_length_c                         20.76100
_cell_angle_alpha                      90.00000
_cell_angle_beta                       90.00000
_cell_angle_gamma                      90.05100
_symmetry_space_group_name_H-M         "P 1"
_symmetry_Int_Tables_number            1

loop_
_symmetry_equiv_pos_as_xyz
   "x, y, z"

loop_
   _atom_site_label
   _atom_site_fract_x
   _atom_site_fract_y
   _atom_site_fract_z
 _atom_site_charge
 Cu1 0.125282 0.333803 0.24999  0.123464444444
 Cu1 0.625325 0.333796 0.24999  0.123464444444
 Cu1 0.124849 0.834019 0.74998  0.123464444444
 Cu1 0.624678 0.833841 0.74998  0.123464444444
 Cu1 0.374642 0.666227 0.74998  0.123464444444
 Cu1 0.874685 0.66622 0.74998  0.123464444444
 Cu1 0.375289 0.166183 0.24999  0.123464444444
 Cu1 0.875117 0.166004 0.24999  0.123464444444
 H1 0.240972 0.244089 0.51214  0.103564444444
 H1 0.741363 0.243883 0.5122  0.103564444444
 H1 0.314921 0.325047 0.6082  0.103564444444
 H1 0.815421 0.324828 0.60830  0.103564444444
 H1 0.425338 0.57954 0.4902  0.103564444444
 H1 0.925473 0.5795 0.4903  0.103564444444
 H1 0.355626 0.495297 0.39365  0.103564444444
 H1 0.855729 0.495232 0.39376  0.103564444444
 H1 0.186786 0.262473 0.40389  0.103564444444
 H1 0.686998 0.262316 0.4040  0.103564444444
 H1 0.286279 0.278702 0.35466  0.103564444444
 H1 0.786486 0.278432 0.35481  0.103564444444
 H1 0.056391 0.532335 0.35033  0.103564444444
 H1 0.556756 0.532258 0.35041  0.103564444444
 H1 0.043152 0.415782 0.39818  0.103564444444
 H1 0.543417 0.41573 0.3982  0.103564444444
 H1 0.008861 0.74413 0.48785  0.103564444444
 H1 0.508735 0.74409 0.48763  0.103564444444
 H1 0.434612 0.824993 0.39166  0.103564444444
 H1 0.934646 0.824871 0.39186  0.103564444444
 H1 0.324624 0.079277 0.50976  0.103564444444
 H1 0.824532 0.079195 0.50987  0.103564444444
 H1 0.394426 0.995043 0.60629  0.103564444444
 H1 0.894407 0.995115 0.60642  0.103564444444
 H1 0.063162 0.76256 0.59609  0.103564444444
 H1 0.563119 0.762465 0.59587  0.103564444444
 H1 0.463643 0.778373 0.64513  0.103564444444
 H1 0.963737 0.778736 0.64539  0.103564444444
 H1 0.193798 0.032691 0.64933  0.103564444444
 H1 0.693575 0.032405 0.64954  0.103564444444
 H1 0.206839 0.91612 0.60151  0.103564444444
 H1 0.706728 0.91593 0.60165  0.103564444444
 H1 0.258605 0.756139 0.01228  0.103564444444
 H1 0.758995 0.755934 0.01215  0.103564444444
 H1 0.184544 0.675196 0.10831  0.103564444444
 H1 0.685046 0.674976 0.1082  0.103564444444
 H1 0.074492 0.420525 0.99034  0.103564444444
 H1 0.574629 0.420483 0.9902  0.103564444444
 H1 0.144239 0.50479 0.89375  0.103564444444
 H1 0.644341 0.504727 0.89364  0.103564444444
 H1 0.312969 0.737706 0.9040  0.103564444444
 H1 0.813181 0.73755 0.90388  0.103564444444
 H1 0.213481 0.721592 0.85480  0.103564444444
 H1 0.713688 0.721322 0.8546  0.103564444444
 H1 0.443211 0.467765 0.85040  0.103564444444
 H1 0.943576 0.467689 0.85032  0.103564444444
 H1 0.456549 0.584293 0.8982  0.103564444444
 H1 0.956814 0.584242 0.89817  0.103564444444
 H1 0.49123 0.255933 0.98762  0.103564444444
 H1 0.991105 0.255893 0.98784  0.103564444444
 H1 0.065321 0.175153 0.89185  0.103564444444
 H1 0.565356 0.175032 0.89165  0.103564444444
 H1 0.175436 0.920828 0.00988  0.103564444444
 H1 0.675345 0.920747 0.00977  0.103564444444
 H1 0.105559 0.004908 0.10643  0.103564444444
 H1 0.605539 0.004979 0.10630  0.103564444444
 H1 0.436848 0.237557 0.09588  0.103564444444
 H1 0.936805 0.237462 0.09610  0.103564444444
 H1 0.03623 0.221287 0.14540  0.103564444444
 H1 0.536324 0.221651 0.14514  0.103564444444
 H1 0.306392 0.967619 0.14955  0.103564444444
 H1 0.806169 0.967332 0.14934  0.103564444444
 H1 0.29324 0.084094 0.10166  0.103564444444
 H1 0.793128 0.083904 0.10152  0.103564444444
 H1 0.258605 0.756139 0.48770  0.103564444444
 H1 0.758995 0.755933 0.48783  0.103564444444
 H1 0.184544 0.675197 0.39167  0.103564444444
 H1 0.685044 0.674977 0.39177  0.103564444444
 H1 0.074492 0.420524 0.5096  0.103564444444
 H1 0.574628 0.420484 0.50971  0.103564444444
 H1 0.144239 0.50479 0.60621  0.103564444444
 H1 0.644342 0.504726 0.60632  0.103564444444
 H1 0.312969 0.737706 0.59593  0.103564444444
 H1 0.81318 0.737549 0.59608  0.103564444444
 H1 0.213481 0.721592 0.64516  0.103564444444
 H1 0.713688 0.721322 0.64531  0.103564444444
 H1 0.443211 0.467765 0.6495  0.103564444444
 H1 0.943576 0.467688 0.64964  0.103564444444
 H1 0.456549 0.584293 0.60171  0.103564444444
 H1 0.956814 0.584242 0.601  0.103564444444
 H1 0.491232 0.255934 0.51234  0.103564444444
 H1 0.991105 0.255892 0.51212  0.103564444444
 H1 0.065322 0.175153 0.6081  0.103564444444
 H1 0.565354 0.17503 0.60831  0.103564444444
 H1 0.175437 0.920829 0.49010  0.103564444444
 H1 0.675343 0.920746 0.49021  0.103564444444
 H1 0.105559 0.004907 0.39355  0.103564444444
 H1 0.605541 0.00498 0.39368  0.103564444444
 H1 0.436847 0.237558 0.40410  0.103564444444
 H1 0.936804 0.237462 0.40388  0.103564444444
 H1 0.03623 0.221287 0.35458  0.103564444444
 H1 0.536324 0.22165 0.35484  0.103564444444
 H1 0.306392 0.967619 0.35043  0.103564444444
 H1 0.806168 0.967332 0.35064  0.103564444444
 H1 0.293239 0.084094 0.39832  0.103564444444
 H1 0.793128 0.083904 0.39846  0.103564444444
 H1 0.240973 0.244088 0.98782  0.103564444444
 H1 0.741362 0.243884 0.98769  0.103564444444
 H1 0.314921 0.325048 0.89176  0.103564444444
 H1 0.815423 0.324827 0.89166  0.103564444444
 H1 0.425337 0.57954 0.0097  0.103564444444
 H1 0.925475 0.579499 0.0096  0.103564444444
 H1 0.355627 0.495296 0.10633  0.103564444444
 H1 0.855728 0.495233 0.10622  0.103564444444
 H1 0.186787 0.262473 0.09609  0.103564444444
 H1 0.686998 0.262316 0.0959  0.103564444444
 H1 0.286279 0.278702 0.14532  0.103564444444
 H1 0.786486 0.278431 0.14517  0.103564444444
 H1 0.056391 0.532334 0.14965  0.103564444444
 H1 0.556756 0.532258 0.14957  0.103564444444
 H1 0.043152 0.415782 0.10180  0.103564444444
 H1 0.543418 0.41573 0.10172  0.103564444444
 H1 0.008862 0.74413 0.01213  0.103564444444
 H1 0.508734 0.744088 0.01235  0.103564444444
 H1 0.434614 0.824994 0.10832  0.103564444444
 H1 0.934646 0.824871 0.1081  0.103564444444
 H1 0.324625 0.079278 0.99020  0.103564444444
 H1 0.824531 0.079195 0.99009  0.103564444444
 H1 0.394425 0.995042 0.89367  0.103564444444
 H1 0.894407 0.995115 0.89354  0.103564444444
 H1 0.063162 0.762561 0.90387  0.103564444444
 H1 0.563119 0.762464 0.90409  0.103564444444
 H1 0.463643 0.778373 0.85483  0.103564444444
 H1 0.963737 0.778736 0.85457  0.103564444444
 H1 0.193798 0.032691 0.85063  0.103564444444
 H1 0.693574 0.032404 0.85042  0.103564444444
 H1 0.206839 0.91612 0.89845  0.103564444444
 H1 0.706728 0.91593 0.89831  0.103564444444
 C1 0.284115 0.315931 0.50677  -0.124293055556
 C1 0.784457 0.315758 0.50689  -0.124293055556
 C1 0.325414 0.362035 0.56104  -0.124293055556
 C1 0.825809 0.361862 0.5611  -0.124293055556
 C2 0.374445 0.45942 0.55628  0.0567844444444
 C2 0.874769 0.459293 0.55637  0.0567844444444
 C1 0.386826 0.504353 0.49498  -0.124293055556
 C1 0.887025 0.504273 0.49507  -0.124293055556
 C1 0.347799 0.457059 0.44061  -0.124293055556
 C1 0.847978 0.45696 0.44071  -0.124293055556
 C2 0.292461 0.364629 0.44605  0.0567844444444
 C2 0.792705 0.36448 0.44616  0.0567844444444
 C3 0.240092 0.320725 0.38890  -0.151928055556
 C3 0.740315 0.320529 0.38903  -0.151928055556
 C3 0.092073 0.480187 0.38532  -0.151928055556
 C3 0.592392 0.480076 0.38540  -0.151928055556
 C1 0.465634 0.815863 0.49306  -0.124293055556
 C1 0.965686 0.815876 0.49326  -0.124293055556
 C1 0.424248 0.861944 0.43885  -0.124293055556
 C1 0.924267 0.861869 0.43902  -0.124293055556
 C2 0.375291 0.959268 0.44367  0.0567844444444
 C2 0.875251 0.959158 0.44381  0.0567844444444
 C1 0.363066 0.0 0.50499  -0.124293055556
 C1 0.863018 0.0 0.50512  -0.124293055556
 C1 0.402149 0.956851 0.55932  -0.124293055556
 C1 0.902136 0.956885 0.55946  -0.124293055556
 C2 0.457415 0.864488 0.55381  0.0567844444444
 C2 0.957453 0.864561 0.55398  0.0567844444444
 C3 0.00993 0.820772 0.61110  -0.151928055556
 C3 0.50982 0.82057 0.61092  -0.151928055556
 C3 0.157981 0.980457 0.6144  -0.151928055556
 C3 0.657841 0.980244 0.61456  -0.151928055556
 C1 0.215511 0.684264 0.00690  -0.124293055556
 C1 0.715853 0.684091 0.00678  -0.124293055556
 C1 0.174157 0.638161 0.0611  -0.124293055556
 C1 0.674553 0.637989 0.06105  -0.124293055556
 C2 0.125201 0.540728 0.05638  0.0567844444444
 C2 0.625522 0.540603 0.05629  0.0567844444444
 C1 0.112941 0.495751 0.99506  -0.124293055556
 C1 0.61314 0.495671 0.99497  -0.124293055556
 C1 0.151989 0.543063 0.94070  -0.124293055556
 C1 0.652168 0.542964 0.94060  -0.124293055556
 C2 0.20726 0.635546 0.94615  0.0567844444444
 C2 0.707505 0.635395 0.94604  0.0567844444444
 C3 0.25965 0.679495 0.88902  -0.151928055556
 C3 0.759875 0.679298 0.888  -0.151928055556
 C3 0.407575 0.519946 0.88539  -0.151928055556
 C3 0.907894 0.519836 0.88531  -0.151928055556
 C1 0.03428 0.184147 0.99325  -0.124293055556
 C1 0.534332 0.184159 0.99305  -0.124293055556
 C1 0.0757 0.138155 0.93901  -0.124293055556
 C1 0.575719 0.13808 0.93884  -0.124293055556
 C2 0.124714 0.040864 0.94380  0.0567844444444
 C2 0.624673 0.040754 0.94366  0.0567844444444
 C1 0.13695 0.995924 0.00513  -0.124293055556
 C1 0.636901 0.995871 0.00500  -0.124293055556
 C1 0.097831 0.043138 0.05947  -0.124293055556
 C1 0.597817 0.043171 0.0593  -0.124293055556
 C2 0.042516 0.135463 0.05399  0.0567844444444
 C2 0.542554 0.135537 0.05382  0.0567844444444
 C3 0.490148 0.179453 0.11093  -0.151928055556
 C3 0.990038 0.179251 0.11111  -0.151928055556
 C3 0.342126 0.019779 0.11457  -0.151928055556
 C3 0.841985 0.019565 0.11443  -0.151928055556
 C1 0.21551 0.684264 0.49308  -0.124293055556
 C1 0.715853 0.684091 0.49320  -0.124293055556
 C1 0.174157 0.638162 0.4388  -0.124293055556
 C1 0.674552 0.637989 0.43893  -0.124293055556
 C2 0.1252 0.540729 0.44360  0.0567844444444
 C2 0.625524 0.540602 0.44369  0.0567844444444
 C1 0.112941 0.495751 0.50490  -0.124293055556
 C1 0.61314 0.495671 0.50499  -0.124293055556
 C1 0.151989 0.543063 0.55926  -0.124293055556
 C1 0.652169 0.542963 0.55936  -0.124293055556
 C2 0.20726 0.635545 0.55381  0.0567844444444
 C2 0.707503 0.635396 0.55392  0.0567844444444
 C3 0.259651 0.679494 0.6109  -0.151928055556
 C3 0.759874 0.679298 0.61107  -0.151928055556
 C3 0.407575 0.519946 0.61457  -0.151928055556
 C3 0.907894 0.519835 0.61465  -0.151928055556
 C1 0.03428 0.184147 0.5067  -0.124293055556
 C1 0.534333 0.18416 0.50691  -0.124293055556
 C1 0.0757 0.138155 0.56095  -0.124293055556
 C1 0.575718 0.13808 0.56112  -0.124293055556
 C2 0.124714 0.040864 0.55616  0.0567844444444
 C2 0.624676 0.040755 0.5563  0.0567844444444
 C1 0.13695 0.995924 0.49485  -0.124293055556
 C1 0.6369 0.995871 0.49498  -0.124293055556
 C1 0.09783 0.043138 0.44051  -0.124293055556
 C1 0.597818 0.043172 0.4406  -0.124293055556
 C2 0.042516 0.135464 0.44599  0.0567844444444
 C2 0.542552 0.135535 0.44616  0.0567844444444
 C3 0.490147 0.179453 0.38905  -0.151928055556
 C3 0.990038 0.179251 0.38887  -0.151928055556
 C3 0.342126 0.01978 0.38541  -0.151928055556
 C3 0.841985 0.019565 0.38555  -0.151928055556
 C1 0.284114 0.315931 0.99319  -0.124293055556
 C1 0.784457 0.315759 0.9930  -0.124293055556
 C1 0.325414 0.362035 0.93892  -0.124293055556
 C1 0.825809 0.361862 0.93883  -0.124293055556
 C2 0.374446 0.459419 0.94368  0.0567844444444
 C2 0.874767 0.459295 0.94359  0.0567844444444
 C1 0.386826 0.504352 0.00500  -0.124293055556
 C1 0.887026 0.504272 0.00491  -0.124293055556
 C1 0.3478 0.457059 0.05937  -0.124293055556
 C1 0.847978 0.45696 0.05927  -0.124293055556
 C2 0.292461 0.36463 0.05393  0.0567844444444
 C2 0.792707 0.364478 0.05382  0.0567844444444
 C3 0.240092 0.320725 0.11108  -0.151928055556
 C3 0.740316 0.320529 0.11095  -0.151928055556
 C3 0.092074 0.480186 0.11466  -0.151928055556
 C3 0.592392 0.480077 0.11458  -0.151928055556
 C1 0.465634 0.815862 0.00692  -0.124293055556
 C1 0.965687 0.815876 0.0067  -0.124293055556
 C1 0.424249 0.861944 0.06113  -0.124293055556
 C1 0.924267 0.861868 0.06096  -0.124293055556
 C2 0.375289 0.959267 0.05631  0.0567844444444
 C2 0.875252 0.959158 0.05617  0.0567844444444
 C1 0.363067 0.0 0.99497  -0.124293055556
 C1 0.863017 0.0 0.99484  -0.124293055556
 C1 0.402148 0.956851 0.9406  -0.124293055556
 C1 0.902136 0.956885 0.94050  -0.124293055556
 C2 0.457417 0.86449 0.94615  0.0567844444444
 C2 0.957452 0.864561 0.94598  0.0567844444444
 C3 0.00993 0.820772 0.88886  -0.151928055556
 C3 0.509821 0.820571 0.88904  -0.151928055556
 C3 0.157982 0.980458 0.88554  -0.151928055556
 C3 0.657841 0.980243 0.88540  -0.151928055556
 S1 0.187137 0.422723 0.33652  -0.00163555555556
 S1 0.687386 0.422494 0.33660  -0.00163555555556
 S1 0.063056 0.922883 0.663  -0.00163555555556
 S1 0.562812 0.922565 0.66338  -0.00163555555556
 S1 0.312582 0.57753 0.83659  -0.00163555555556
 S1 0.81283 0.5773 0.83651  -0.00163555555556
 S1 0.437154 0.077459 0.1633  -0.00163555555556
 S1 0.93691 0.07714 0.16340  -0.00163555555556
 S1 0.312582 0.57753 0.66337  -0.00163555555556
 S1 0.81283 0.5773 0.66345  -0.00163555555556
 S1 0.437155 0.077458 0.336  -0.00163555555556
 S1 0.93691 0.07714 0.33658  -0.00163555555556
 S1 0.187137 0.422723 0.16346  -0.00163555555556
 S1 0.687385 0.422493 0.16338  -0.00163555555556
 S1 0.063057 0.922883 0.83657  -0.00163555555556
 S1 0.562812 0.922565 0.8365  -0.00163555555556
 Br1 0.448911 0.350404 0.24999  -0.402305555556
 Br1 0.948827 0.350125 0.24999  -0.402305555556
 Br1 0.30128 0.850427 0.74998  -0.402305555556
 Br1 0.80114 0.85035 0.74998  -0.402305555556
 Br1 0.05114 0.649899 0.74998  -0.402305555556
 Br1 0.551056 0.649619 0.74998  -0.402305555556
 Br1 0.198827 0.149673 0.24999  -0.402305555556
 Br1 0.698687 0.149596 0.24999  -0.402305555556
