#======================================================================

# CRYSTAL DATA

#----------------------------------------------------------------------

data_VESTA_phase_1


_pd_phase_name                         MOF
_cell_length_a                         15.08400
_cell_length_b                         12.45500
_cell_length_c                         25.54100
_cell_angle_alpha                      70.80100
_cell_angle_beta                       81.47300
_cell_angle_gamma                      72.34500
_symmetry_space_group_name_H-M         "P 1"
_symmetry_Int_Tables_number            1

loop_
_symmetry_equiv_pos_as_xyz
   "x, y, z"

loop_
   _atom_site_label
   _atom_site_fract_x
   _atom_site_fract_y
   _atom_site_fract_z
 _atom_site_charge
 Zn1 0.486691 0.897965 0.96433  0.941156125
 Zn1 0.986581 0.898066 0.96433  0.941156125
 Zn1 0.418315 0.603435 0.53361  0.941156125
 Zn1 0.918327 0.603463 0.53363  0.941156125
 Zn1 0.013833 0.103251 0.03351  0.941156125
 Zn1 0.513919 0.103163 0.03352  0.941156125
 Zn1 0.082023 0.39811 0.46425  0.941156125
 Zn1 0.582003 0.39807 0.4642  0.941156125
 H1 0.206297 0.971487 0.846  0.104833267857
 H1 0.706334 0.971437 0.84608  0.104833267857
 H1 0.30435 0.054785 0.76635  0.104833267857
 H1 0.804375 0.05477 0.76634  0.104833267857
 H1 0.065921 0.197493 0.6646  0.104833267857
 H1 0.565954 0.197383 0.66465  0.104833267857
 H1 0.468926 0.113689 0.74600  0.104833267857
 H1 0.968883 0.113825 0.74601  0.104833267857
 H1 0.378043 0.043802 0.68492  0.104833267857
 H1 0.878076 0.043787 0.6849  0.104833267857
 H1 0.478362 0.14255 0.61074  0.104833267857
 H1 0.978385 0.142573 0.61074  0.104833267857
 H1 0.24031 0.43575 0.55242  0.104833267857
 H1 0.740305 0.435745 0.55243  0.104833267857
 H1 0.139588 0.337604 0.62488  0.104833267857
 H1 0.639595 0.337548 0.62487  0.104833267857
 H1 0.354935 0.874469 0.89662  0.104833267857
 H1 0.854833 0.874582 0.8966  0.104833267857
 H1 0.272581 0.725416 0.89857  0.104833267857
 H1 0.772485 0.725533 0.89856  0.104833267857
 H1 0.405137 0.504825 0.0512  0.104833267857
 H1 0.905148 0.504841 0.05119  0.104833267857
 H1 0.476551 0.665301 0.04467  0.104833267857
 H1 0.976541 0.665324 0.04463  0.104833267857
 H1 0.343154 0.419375 0.98423  0.104833267857
 H1 0.843129 0.41946 0.9841  0.104833267857
 H1 0.263024 0.523724 0.93573  0.104833267857
 H1 0.76292 0.523852 0.935  0.104833267857
 H1 0.114895 0.530723 0.65201  0.104833267857
 H1 0.614874 0.53073 0.65198  0.104833267857
 H1 0.214692 0.447436 0.73171  0.104833267857
 H1 0.714662 0.447443 0.73169  0.104833267857
 H1 0.496699 0.304765 0.83344  0.104833267857
 H1 0.996709 0.304863 0.83349  0.104833267857
 H1 0.398585 0.388283 0.75211  0.104833267857
 H1 0.898576 0.388388 0.75218  0.104833267857
 H1 0.242379 0.458034 0.81321  0.104833267857
 H1 0.742305 0.458041 0.81318  0.104833267857
 H1 0.355057 0.358868 0.88729  0.104833267857
 H1 0.854955 0.35893 0.88728  0.104833267857
 H1 0.234307 0.065918 0.94547  0.104833267857
 H1 0.734249 0.065938 0.94546  0.104833267857
 H1 0.120642 0.164474 0.87314  0.104833267857
 H1 0.620616 0.164444 0.87311  0.104833267857
 H1 0.240618 0.626101 0.60131  0.104833267857
 H1 0.740663 0.626275 0.60139  0.104833267857
 H1 0.084485 0.774933 0.59951  0.104833267857
 H1 0.584547 0.775152 0.59957  0.104833267857
 H1 0.183175 0.996558 0.44718  0.104833267857
 H1 0.683171 0.996514 0.44713  0.104833267857
 H1 0.331712 0.836211 0.45355  0.104833267857
 H1 0.831695 0.836142 0.45352  0.104833267857
 H1 0.044765 0.081266 0.51447  0.104833267857
 H1 0.544812 0.081372 0.51444  0.104833267857
 H1 0.492291 0.976697 0.5624  0.104833267857
 H1 0.992259 0.976558 0.56248  0.104833267857
 H1 0.294093 0.030226 0.15182  0.104833267857
 H1 0.794082 0.030216 0.15183  0.104833267857
 H1 0.196075 0.946798 0.23154  0.104833267857
 H1 0.696069 0.946785 0.23155  0.104833267857
 H1 0.434454 0.804274 0.33325  0.104833267857
 H1 0.93445 0.804279 0.33326  0.104833267857
 H1 0.03149 0.887902 0.25191  0.104833267857
 H1 0.531502 0.88789 0.25190  0.104833267857
 H1 0.122321 0.957791 0.31298  0.104833267857
 H1 0.622319 0.957789 0.31299  0.104833267857
 H1 0.02201 0.85907 0.38717  0.104833267857
 H1 0.522006 0.859052 0.38717  0.104833267857
 H1 0.260072 0.565916 0.44552  0.104833267857
 H1 0.760063 0.565889 0.44552  0.104833267857
 H1 0.360795 0.664059 0.37307  0.104833267857
 H1 0.860792 0.664049 0.37307  0.104833267857
 H1 0.14591 0.126258 0.1011  0.104833267857
 H1 0.646058 0.126157 0.10110  0.104833267857
 H1 0.228285 0.275196 0.09931  0.104833267857
 H1 0.728419 0.275113 0.09928  0.104833267857
 H1 0.095265 0.496533 0.9468  0.104833267857
 H1 0.595217 0.496525 0.94691  0.104833267857
 H1 0.023904 0.336109 0.95328  0.104833267857
 H1 0.523893 0.336066 0.95331  0.104833267857
 H1 0.157512 0.581554 0.01388  0.104833267857
 H1 0.657517 0.581504 0.01392  0.104833267857
 H1 0.23763 0.477086 0.06237  0.104833267857
 H1 0.737718 0.477016 0.06236  0.104833267857
 H1 0.385223 0.47071 0.34601  0.104833267857
 H1 0.885251 0.470698 0.34603  0.104833267857
 H1 0.285403 0.554035 0.2663  0.104833267857
 H1 0.785435 0.55399 0.2663  0.104833267857
 H1 0.00338 0.696683 0.1645  0.104833267857
 H1 0.503374 0.696697 0.16455  0.104833267857
 H1 0.101539 0.613093 0.24587  0.104833267857
 H1 0.601531 0.613076 0.24586  0.104833267857
 H1 0.257868 0.543237 0.18483  0.104833267857
 H1 0.757896 0.543178 0.18486  0.104833267857
 H1 0.145244 0.642206 0.11072  0.104833267857
 H1 0.645284 0.642124 0.1107  0.104833267857
 H1 0.26588 0.935271 0.05247  0.104833267857
 H1 0.765896 0.93521 0.05248  0.104833267857
 H1 0.37945 0.836909 0.12486  0.104833267857
 H1 0.879456 0.836874 0.12489  0.104833267857
 H1 0.259777 0.375238 0.39667  0.104833267857
 H1 0.759717 0.375111 0.39662  0.104833267857
 H1 0.415943 0.226457 0.39859  0.104833267857
 H1 0.915873 0.226301 0.39854  0.104833267857
 H1 0.317175 0.005131 0.55099  0.104833267857
 H1 0.817171 0.005142 0.55102  0.104833267857
 H1 0.168602 0.165451 0.54450  0.104833267857
 H1 0.668606 0.165472 0.5445  0.104833267857
 H1 0.455629 0.920238 0.48371  0.104833267857
 H1 0.955591 0.920166 0.48370  0.104833267857
 H1 0.008114 0.02485 0.43571  0.104833267857
 H1 0.508143 0.024925 0.43570  0.104833267857
 C1 0.021358 0.990121 0.85092  0.668211125
 C1 0.521408 0.990019 0.85090  0.668211125
 C2 0.081609 0.035433 0.80116  -0.011017875
 C2 0.581654 0.035333 0.80115  -0.011017875
 C3 0.1767 0.0 0.80580  -0.112651875
 C3 0.676739 0.0 0.80579  -0.112651875
 C3 0.231736 0.065202 0.76046  -0.112651875
 C3 0.731767 0.06516 0.76045  -0.112651875
 C2 0.193144 0.130536 0.70866  -0.011017875
 C2 0.693176 0.130467 0.70865  -0.011017875
 C3 0.097716 0.146667 0.70417  -0.112651875
 C3 0.597752 0.146574 0.70416  -0.112651875
 C3 0.042927 0.09951 0.74959  -0.112651875
 C3 0.54297 0.099397 0.74958  -0.112651875
 C2 0.251371 0.184171 0.66147  -0.011017875
 C2 0.751393 0.184132 0.66146  -0.011017875
 C3 0.347509 0.129827 0.6559  -0.112651875
 C3 0.847536 0.129813 0.65591  -0.112651875
 C3 0.404022 0.184691 0.61431  -0.112651875
 C3 0.904041 0.1847 0.61430  -0.112651875
 C2 0.366624 0.296817 0.57745  -0.011017875
 C2 0.866631 0.296831 0.57745  -0.011017875
 C3 0.270474 0.349726 0.58138  -0.112651875
 C3 0.770477 0.349716 0.58138  -0.112651875
 C3 0.213632 0.29331 0.6221  -0.112651875
 C3 0.713643 0.293274 0.62211  -0.112651875
 C1 0.428277 0.361188 0.53683  0.668211125
 C1 0.928282 0.361225 0.53684  0.668211125
 C4 0.361708 0.791929 0.93039  0.189591125
 C4 0.861628 0.792023 0.9303  0.189591125
 C3 0.318038 0.707516 0.9316  -0.112651875
 C3 0.817966 0.707609 0.93164  -0.112651875
 C2 0.333638 0.600468 0.97458  -0.011017875
 C2 0.833594 0.600536 0.97455  -0.011017875
 C3 0.391003 0.585581 0.01635  -0.112651875
 C3 0.890989 0.585619 0.01631  -0.112651875
 C4 0.431504 0.673896 0.01309  0.189591125
 C4 0.931478 0.673938 0.01306  0.189591125
 C5 0.290181 0.505401 0.97632  -0.166893875
 C5 0.790141 0.50547 0.97628  -0.166893875
 C1 0.441805 0.511724 0.64713  0.668211125
 C1 0.941802 0.511768 0.64717  0.668211125
 C2 0.499686 0.466711 0.69692  -0.011017875
 C2 0.99969 0.466756 0.69696  -0.011017875
 C3 0.088715 0.48355 0.69232  -0.112651875
 C3 0.588701 0.483534 0.69228  -0.112651875
 C3 0.144327 0.437047 0.7376  -0.112651875
 C3 0.644305 0.437028 0.7376  -0.112651875
 C2 0.112519 0.371696 0.78945  -0.011017875
 C2 0.612493 0.371654 0.78942  -0.011017875
 C3 0.022876 0.355653 0.79398  -0.112651875
 C3 0.522862 0.355579 0.79393  -0.112651875
 C3 0.467239 0.402669 0.7485  -0.112651875
 C3 0.967241 0.402749 0.74857  -0.112651875
 C2 0.174022 0.317869 0.83661  -0.011017875
 C2 0.673979 0.31785 0.83658  -0.011017875
 C3 0.24032 0.371976 0.84216  -0.112651875
 C3 0.740254 0.371984 0.8421  -0.112651875
 C3 0.303507 0.316885 0.88372  -0.112651875
 C3 0.803423 0.316925 0.88371  -0.112651875
 C2 0.303732 0.204723 0.92054  -0.011017875
 C2 0.80365 0.20477 0.92053  -0.011017875
 C3 0.235944 0.152001 0.91658  -0.112651875
 C3 0.735886 0.152017 0.91656  -0.112651875
 C3 0.171209 0.208641 0.87589  -0.112651875
 C3 0.671169 0.208627 0.87587  -0.112651875
 C1 0.377325 0.140072 0.96110  0.668211125
 C1 0.87722 0.140166 0.96111  0.668211125
 C4 0.222951 0.708784 0.56763  0.189591125
 C4 0.722988 0.708913 0.56768  0.189591125
 C3 0.137599 0.793103 0.56647  -0.112651875
 C3 0.637646 0.793254 0.56651  -0.112651875
 C2 0.121099 0.900346 0.52367  -0.011017875
 C2 0.621129 0.900437 0.52367  -0.011017875
 C3 0.192001 0.915597 0.48196  -0.112651875
 C3 0.69201 0.915605 0.48194  -0.112651875
 C4 0.275107 0.827351 0.48511  0.189591125
 C4 0.775107 0.827343 0.48510  0.189591125
 C5 0.030897 0.995369 0.52199  -0.166893875
 C5 0.530935 0.995474 0.52198  -0.166893875
 C1 0.479083 0.011507 0.14696  0.668211125
 C1 0.979066 0.011523 0.1469  0.668211125
 C2 0.418793 0.966305 0.19674  -0.011017875
 C2 0.918782 0.966307 0.19675  -0.011017875
 C3 0.323699 0.983023 0.19211  -0.112651875
 C3 0.823689 0.983013 0.19212  -0.112651875
 C3 0.268672 0.936443 0.2374  -0.112651875
 C3 0.768665 0.936435 0.23745  -0.112651875
 C2 0.307243 0.87112 0.28925  -0.011017875
 C2 0.80724 0.871115 0.28926  -0.011017875
 C3 0.40266 0.855061 0.29374  -0.112651875
 C3 0.902656 0.855063 0.29375  -0.112651875
 C3 0.457454 0.902223 0.24832  -0.112651875
 C3 0.957447 0.902226 0.24832  -0.112651875
 C2 0.249017 0.817483 0.33645  -0.011017875
 C2 0.749015 0.817474 0.33646  -0.011017875
 C3 0.152864 0.871777 0.34198  -0.112651875
 C3 0.652862 0.87177 0.34199  -0.112651875
 C3 0.096354 0.816937 0.38360  -0.112651875
 C3 0.596349 0.816921 0.38360  -0.112651875
 C2 0.133749 0.704831 0.42048  -0.011017875
 C2 0.633743 0.704808 0.42048  -0.011017875
 C3 0.229902 0.651927 0.41655  -0.112651875
 C3 0.729895 0.651904 0.41655  -0.112651875
 C3 0.286745 0.708338 0.37581  -0.112651875
 C3 0.786741 0.708324 0.37581  -0.112651875
 C1 0.072056 0.640486 0.4610  0.668211125
 C1 0.572045 0.640457 0.46106  0.668211125
 C4 0.13906 0.208919 0.06743  0.189591125
 C4 0.639169 0.208836 0.06741  0.189591125
 C3 0.182697 0.293297 0.06626  -0.112651875
 C3 0.682795 0.293227 0.06625  -0.112651875
 C2 0.167009 0.400488 0.02343  -0.011017875
 C2 0.66705 0.400446 0.02343  -0.011017875
 C3 0.10948 0.415641 0.98169  -0.112651875
 C3 0.609478 0.415611 0.98171  -0.112651875
 C4 0.069035 0.32734 0.98485  0.189591125
 C4 0.569051 0.327293 0.98487  0.189591125
 C5 0.210458 0.495509 0.02177  -0.166893875
 C5 0.710486 0.49548 0.02177  -0.166893875
 C1 0.058396 0.48939 0.3508  0.668211125
 C1 0.558377 0.489354 0.35081  0.668211125
 C2 0.000454 0.534631 0.30106  -0.011017875
 C2 0.500436 0.534618 0.30105  -0.011017875
 C3 0.411391 0.517875 0.30570  -0.112651875
 C3 0.911417 0.517866 0.30572  -0.112651875
 C3 0.355763 0.564439 0.26039  -0.112651875
 C3 0.855791 0.564403 0.2604  -0.112651875
 C2 0.387599 0.629753 0.2085  -0.011017875
 C2 0.887616 0.629723 0.20859  -0.011017875
 C3 0.477213 0.645876 0.20406  -0.112651875
 C3 0.977225 0.645862 0.20408  -0.112651875
 C3 0.032884 0.598711 0.24947  -0.112651875
 C3 0.532872 0.598703 0.24946  -0.112651875
 C2 0.326127 0.683494 0.16141  -0.011017875
 C2 0.826146 0.683448 0.16143  -0.011017875
 C3 0.259896 0.629287 0.15586  -0.112651875
 C3 0.759923 0.629226 0.15589  -0.112651875
 C3 0.196747 0.684266 0.11428  -0.112651875
 C3 0.69678 0.684193 0.11430  -0.112651875
 C2 0.196505 0.796407 0.0774  -0.011017875
 C2 0.696539 0.79633 0.07745  -0.011017875
 C3 0.264243 0.849216 0.08139  -0.112651875
 C3 0.764262 0.849157 0.08140  -0.112651875
 C3 0.328927 0.792691 0.12210  -0.112651875
 C3 0.828941 0.792646 0.12212  -0.112651875
 C1 0.122956 0.860955 0.03684  0.668211125
 C1 0.623009 0.860848 0.03684  0.668211125
 C4 0.27743 0.292635 0.430  0.189591125
 C4 0.777384 0.292534 0.4303  0.189591125
 C3 0.362804 0.208337 0.43162  -0.112651875
 C3 0.862752 0.208225 0.43159  -0.112651875
 C2 0.379286 0.10117 0.47447  -0.011017875
 C2 0.879252 0.1011 0.47447  -0.011017875
 C3 0.308358 0.086019 0.5161  -0.112651875
 C3 0.808343 0.085996 0.51618  -0.112651875
 C4 0.225227 0.17425 0.51295  0.189591125
 C4 0.725216 0.174235 0.51296  0.189591125
 C5 0.469492 0.006142 0.47618  -0.166893875
 C5 0.969456 0.006064 0.47619  -0.166893875
 N1 0.418511 0.775079 0.970  -0.372663875
 N1 0.918453 0.775151 0.97028  -0.372663875
 N1 0.291345 0.725944 0.52776  -0.372663875
 N1 0.79136 0.725995 0.52778  -0.372663875
 N1 0.082125 0.226001 0.02755  -0.372663875
 N1 0.582196 0.225928 0.02756  -0.372663875
 N1 0.209 0.275563 0.47025  -0.372663875
 N1 0.708975 0.27551 0.47024  -0.372663875
 O1 0.063199 0.947224 0.89787  -0.608343875
 O1 0.563287 0.947002 0.89785  -0.608343875
 O2 0.438698 0.99594 0.84652  -0.578228875
 O2 0.938663 0.996 0.84652  -0.578228875
 O1 0.396077 0.472103 0.51322  -0.608343875
 O1 0.896073 0.47214 0.51324  -0.608343875
 O1 0.011765 0.303141 0.52689  -0.608343875
 O1 0.511758 0.30309 0.5268  -0.608343875
 O1 0.485536 0.555384 0.60022  -0.608343875
 O1 0.985534 0.555378 0.60025  -0.608343875
 O2 0.360161 0.504762 0.65143  -0.578228875
 O2 0.860145 0.504848 0.65148  -0.578228875
 O1 0.388427 0.029229 0.98473  -0.608343875
 O1 0.888346 0.029322 0.98475  -0.608343875
 O1 0.427 0.197904 0.97099  -0.608343875
 O1 0.926857 0.198036 0.9710  -0.608343875
 O1 0.437007 0.055368 0.10006  -0.608343875
 O1 0.936984 0.055387 0.10007  -0.608343875
 O2 0.062016 0.004653 0.15128  -0.578228875
 O2 0.562038 0.004636 0.15127  -0.578228875
 O1 0.104186 0.529555 0.48466  -0.608343875
 O1 0.604165 0.529519 0.48463  -0.608343875
 O1 0.488663 0.698697 0.47112  -0.608343875
 O1 0.988672 0.698718 0.47113  -0.608343875
 O1 0.014629 0.445822 0.39774  -0.608343875
 O1 0.514636 0.445683 0.39772  -0.608343875
 O2 0.140146 0.49599 0.34651  -0.578228875
 O2 0.640113 0.496004 0.34650  -0.578228875
 O1 0.111774 0.971802 0.01318  -0.608343875
 O1 0.611818 0.971693 0.01318  -0.608343875
 O1 0.073377 0.803073 0.02690  -0.608343875
 O1 0.57346 0.802937 0.02690  -0.608343875
