#======================================================================

# CRYSTAL DATA

#----------------------------------------------------------------------

data_VESTA_phase_1


_pd_phase_name                         MOF
_cell_length_a                         18.06700
_cell_length_b                         20.61100
_cell_length_c                         18.88800
_cell_angle_alpha                      89.97800
_cell_angle_beta                       89.99300
_cell_angle_gamma                      90.02700
_symmetry_space_group_name_H-M         "P 1"
_symmetry_Int_Tables_number            1

loop_
_symmetry_equiv_pos_as_xyz
   "x, y, z"

loop_
   _atom_site_label
   _atom_site_fract_x
   _atom_site_fract_y
   _atom_site_fract_z
 _atom_site_charge
 Zn1 0.065495 0.013859 0.59845  0.819264107143
 Zn1 0.065497 0.513866 0.59845  0.819264107143
 Zn1 0.565504 0.013859 0.59845  0.819264107143
 Zn1 0.565506 0.513866 0.59845  0.819264107143
 Zn1 0.315492 0.486144 0.40148  0.819264107143
 Zn1 0.315494 0.986152 0.40148  0.819264107143
 Zn1 0.815501 0.486144 0.40148  0.819264107143
 Zn1 0.815503 0.986152 0.40148  0.819264107143
 Zn1 0.065446 0.236175 0.09852  0.819264107143
 Zn1 0.065448 0.736183 0.09852  0.819264107143
 Zn1 0.565455 0.236175 0.09852  0.819264107143
 Zn1 0.565457 0.736182 0.09852  0.819264107143
 Zn1 0.315465 0.263819 0.90148  0.819264107143
 Zn1 0.315467 0.763826 0.90148  0.819264107143
 Zn1 0.815474 0.263818 0.90148  0.819264107143
 Zn1 0.815476 0.763826 0.90148  0.819264107143
 H1 0.409876 0.472331 0.5334  0.0850424404762
 H1 0.409877 0.972339 0.53349  0.0850424404762
 H1 0.909884 0.472332 0.53349  0.0850424404762
 H1 0.909887 0.972339 0.5334  0.0850424404762
 H1 0.118309 0.190261 0.39223  0.0850424404762
 H1 0.118311 0.690267 0.39223  0.0850424404762
 H1 0.618318 0.190261 0.39223  0.0850424404762
 H1 0.61832 0.690268 0.39223  0.0850424404762
 H2 0.417337 0.152624 0.26264  0.334646607143
 H2 0.417339 0.652631 0.26264  0.334646607143
 H2 0.917346 0.152624 0.26264  0.334646607143
 H2 0.917348 0.652631 0.26264  0.334646607143
 H2 0.358768 0.098315 0.30900  0.334646607143
 H2 0.35877 0.598323 0.30900  0.334646607143
 H2 0.858777 0.098315 0.30900  0.334646607143
 H2 0.858779 0.598323 0.30900  0.334646607143
 H1 0.487648 0.341595 0.70758  0.0850424404762
 H1 0.487651 0.841602 0.70758  0.0850424404762
 H1 0.987657 0.341595 0.70758  0.0850424404762
 H1 0.987659 0.841602 0.70758  0.0850424404762
 H1 0.425321 0.26323 0.78953  0.0850424404762
 H1 0.425323 0.763238 0.78953  0.0850424404762
 H1 0.92533 0.263231 0.78953  0.0850424404762
 H1 0.925333 0.763238 0.78953  0.0850424404762
 H1 0.299859 0.409782 0.88048  0.0850424404762
 H1 0.299859 0.909789 0.88048  0.0850424404762
 H1 0.799867 0.409782 0.88048  0.0850424404762
 H1 0.799872 0.90979 0.8804  0.0850424404762
 H1 0.356439 0.493768 0.79987  0.0850424404762
 H1 0.35644 0.993775 0.79987  0.0850424404762
 H1 0.856447 0.493768 0.79987  0.0850424404762
 H1 0.856451 0.993776 0.79988  0.0850424404762
 H1 0.159894 0.027636 0.46646  0.0850424404762
 H1 0.159896 0.527643 0.46646  0.0850424404762
 H1 0.659904 0.027637 0.46646  0.0850424404762
 H1 0.659905 0.527643 0.46646  0.0850424404762
 H1 0.368228 0.309812 0.60768  0.0850424404762
 H1 0.36823 0.809819 0.60768  0.0850424404762
 H1 0.868237 0.309811 0.60768  0.0850424404762
 H1 0.868239 0.809818 0.60768  0.0850424404762
 H2 0.167299 0.347374 0.73734  0.334646607143
 H2 0.167301 0.847382 0.73734  0.334646607143
 H2 0.667308 0.347374 0.73734  0.334646607143
 H2 0.66731 0.847381 0.73734  0.334646607143
 H2 0.108749 0.401663 0.69100  0.334646607143
 H2 0.108751 0.90167 0.69100  0.334646607143
 H2 0.608758 0.401663 0.69100  0.334646607143
 H2 0.60876 0.901671 0.69100  0.334646607143
 H1 0.237577 0.158465 0.29246  0.0850424404762
 H1 0.237582 0.658472 0.29246  0.0850424404762
 H1 0.737587 0.158465 0.29246  0.0850424404762
 H1 0.737592 0.658472 0.29246  0.0850424404762
 H1 0.175249 0.236822 0.2105  0.0850424404762
 H1 0.175251 0.73683 0.2105  0.0850424404762
 H1 0.675257 0.236822 0.2105  0.0850424404762
 H1 0.675258 0.73683 0.21059  0.0850424404762
 H1 0.04985 0.090201 0.11951  0.0850424404762
 H1 0.04985 0.590209 0.1195  0.0850424404762
 H1 0.549857 0.090201 0.1195  0.0850424404762
 H1 0.549857 0.590209 0.11952  0.0850424404762
 H1 0.106407 0.006228 0.20007  0.0850424404762
 H1 0.106409 0.506236 0.20007  0.0850424404762
 H1 0.606415 0.006228 0.20007  0.0850424404762
 H1 0.606419 0.506235 0.20007  0.0850424404762
 H1 0.409593 0.277519 0.03367  0.0850424404762
 H1 0.409594 0.777526 0.03367  0.0850424404762
 H1 0.909603 0.27752 0.0336  0.0850424404762
 H1 0.909604 0.777526 0.03367  0.0850424404762
 H1 0.118497 0.060165 0.89249  0.0850424404762
 H1 0.1185 0.560174 0.89249  0.0850424404762
 H1 0.618507 0.060167 0.89249  0.0850424404762
 H1 0.61851 0.560175 0.89249  0.0850424404762
 H2 0.417446 0.097326 0.76285  0.334646607143
 H2 0.417449 0.597334 0.76285  0.334646607143
 H2 0.917455 0.097325 0.76285  0.334646607143
 H2 0.917458 0.597334 0.76285  0.334646607143
 H2 0.358781 0.151535 0.80915  0.334646607143
 H2 0.358783 0.651542 0.80915  0.334646607143
 H2 0.85879 0.151535 0.80915  0.334646607143
 H2 0.858792 0.651542 0.80915  0.334646607143
 H1 0.487781 0.408472 0.20768  0.0850424404762
 H1 0.487783 0.90848 0.20768  0.0850424404762
 H1 0.987791 0.408473 0.20768  0.0850424404762
 H1 0.987793 0.90848 0.20768  0.0850424404762
 H1 0.425496 0.48677 0.28959  0.0850424404762
 H1 0.425499 0.986778 0.28959  0.0850424404762
 H1 0.925504 0.48677 0.28959  0.0850424404762
 H1 0.925507 0.986778 0.28959  0.0850424404762
 H1 0.299923 0.340129 0.38057  0.0850424404762
 H1 0.299926 0.840136 0.38057  0.0850424404762
 H1 0.79993 0.340129 0.38056  0.0850424404762
 H1 0.799933 0.840137 0.38056  0.0850424404762
 H1 0.356448 0.256212 0.29997  0.0850424404762
 H1 0.35645 0.756219 0.29997  0.0850424404762
 H1 0.856458 0.256212 0.29997  0.0850424404762
 H1 0.856459 0.756219 0.29997  0.0850424404762
 H1 0.159591 0.222446 0.96635  0.0850424404762
 H1 0.159593 0.722453 0.96635  0.0850424404762
 H1 0.659601 0.222444 0.9663  0.0850424404762
 H1 0.659603 0.722453 0.96635  0.0850424404762
 H1 0.368624 0.439906 0.10744  0.0850424404762
 H1 0.368626 0.939914 0.10744  0.0850424404762
 H1 0.868632 0.439908 0.10744  0.0850424404762
 H1 0.868634 0.939915 0.10744  0.0850424404762
 H2 0.167475 0.40272 0.23710  0.334646607143
 H2 0.167477 0.902727 0.23710  0.334646607143
 H2 0.667484 0.40272 0.23710  0.334646607143
 H2 0.667486 0.902727 0.23710  0.334646607143
 H2 0.108806 0.348482 0.19079  0.334646607143
 H2 0.108808 0.848489 0.19079  0.334646607143
 H2 0.608815 0.348482 0.19079  0.334646607143
 H2 0.608817 0.848489 0.19079  0.334646607143
 H1 0.237644 0.091556 0.79236  0.0850424404762
 H1 0.237647 0.591563 0.79236  0.0850424404762
 H1 0.737657 0.091556 0.79236  0.0850424404762
 H1 0.737656 0.591564 0.79236  0.0850424404762
 H1 0.175382 0.013231 0.71041  0.0850424404762
 H1 0.175383 0.513239 0.71041  0.0850424404762
 H1 0.675389 0.013231 0.71041  0.0850424404762
 H1 0.675394 0.513239 0.71041  0.0850424404762
 H1 0.049981 0.159827 0.61937  0.0850424404762
 H1 0.04998 0.659834 0.61937  0.0850424404762
 H1 0.549984 0.159826 0.61937  0.0850424404762
 H1 0.549992 0.659835 0.61937  0.0850424404762
 H1 0.10649 0.24377 0.69999  0.0850424404762
 H1 0.10649 0.743777 0.69999  0.0850424404762
 H1 0.606497 0.243769 0.69999  0.0850424404762
 H1 0.6065 0.743777 0.69999  0.0850424404762
 C1 0.435235 0.010454 0.50198  0.365279107143
 C1 0.435237 0.510461 0.50198  0.365279107143
 C1 0.935244 0.010454 0.50198  0.365279107143
 C1 0.935246 0.510462 0.50198  0.365279107143
 C1 0.071658 0.157312 0.40038  0.365279107143
 C1 0.07166 0.657318 0.40038  0.365279107143
 C1 0.571667 0.157311 0.40038  0.365279107143
 C1 0.571669 0.657319 0.40038  0.365279107143
 C2 0.460247 0.11852 0.35542  0.457014107143
 C2 0.460248 0.618528 0.35542  0.457014107143
 C2 0.960256 0.11852 0.35542  0.457014107143
 C2 0.960258 0.618527 0.35542  0.457014107143
 C3 0.455676 0.078431 0.41623  -0.105035892857
 C3 0.455678 0.578439 0.41623  -0.105035892857
 C3 0.955685 0.078431 0.41623  -0.105035892857
 C3 0.955687 0.578438 0.41623  -0.105035892857
 C2 0.013926 0.082761 0.4654  0.457014107143
 C2 0.013928 0.582768 0.46543  0.457014107143
 C2 0.513935 0.082761 0.4654  0.457014107143
 C2 0.513937 0.582768 0.4654  0.457014107143
 C4 0.461747 0.472308 0.69829  0.639684107143
 C4 0.46175 0.972316 0.69829  0.639684107143
 C4 0.961757 0.472309 0.69829  0.639684107143
 C4 0.961757 0.972315 0.69829  0.639684107143
 C5 0.446239 0.358238 0.74522  -0.129715892857
 C5 0.446239 0.858245 0.7452  -0.129715892857
 C5 0.946246 0.358238 0.7452  -0.129715892857
 C5 0.946252 0.858246 0.74522  -0.129715892857
 C6 0.426588 0.423775 0.74777  -0.00631589285714
 C6 0.426592 0.923783 0.74777  -0.00631589285714
 C6 0.926597 0.423775 0.74777  -0.00631589285714
 C6 0.926598 0.923782 0.74777  -0.00631589285714
 C7 0.411814 0.314773 0.79051  0.161719107143
 C7 0.411816 0.814781 0.79051  0.161719107143
 C7 0.911822 0.314774 0.79051  0.161719107143
 C7 0.911825 0.814781 0.79051  0.161719107143
 C7 0.341144 0.39691 0.84087  0.161719107143
 C7 0.341145 0.896916 0.84087  0.161719107143
 C7 0.841152 0.396909 0.84087  0.161719107143
 C7 0.841157 0.896918 0.84087  0.161719107143
 C5 0.372725 0.443029 0.79654  -0.129715892857
 C5 0.372724 0.943035 0.79654  -0.129715892857
 C5 0.872731 0.443028 0.79654  -0.129715892857
 C5 0.87274 0.943037 0.79654  -0.129715892857
 C1 0.185228 0.489523 0.49797  0.365279107143
 C1 0.18523 0.98953 0.49797  0.365279107143
 C1 0.685237 0.489523 0.49797  0.365279107143
 C1 0.685239 0.989531 0.49797  0.365279107143
 C1 0.321587 0.342734 0.59954  0.365279107143
 C1 0.321589 0.842742 0.59954  0.365279107143
 C1 0.821596 0.342734 0.59954  0.365279107143
 C1 0.821598 0.842741 0.59954  0.365279107143
 C2 0.210201 0.381493 0.64454  0.457014107143
 C2 0.210204 0.8815 0.64454  0.457014107143
 C2 0.710211 0.381493 0.64454  0.457014107143
 C2 0.710212 0.8815 0.64454  0.457014107143
 C3 0.205637 0.421574 0.58373  -0.105035892857
 C3 0.205639 0.921581 0.58373  -0.105035892857
 C3 0.705646 0.421573 0.58373  -0.105035892857
 C3 0.705648 0.921581 0.58373  -0.105035892857
 C2 0.263875 0.417241 0.53449  0.457014107143
 C2 0.263877 0.917248 0.53449  0.457014107143
 C2 0.763884 0.417241 0.53449  0.457014107143
 C2 0.763886 0.917248 0.53449  0.457014107143
 C4 0.211668 0.027705 0.30169  0.639684107143
 C4 0.211672 0.527712 0.30169  0.639684107143
 C4 0.711678 0.027705 0.30169  0.639684107143
 C4 0.711684 0.527711 0.3016  0.639684107143
 C5 0.196179 0.141803 0.25482  -0.129715892857
 C5 0.19618 0.64181 0.25482  -0.129715892857
 C5 0.696187 0.141803 0.25482  -0.129715892857
 C5 0.696187 0.64181 0.25482  -0.129715892857
 C6 0.176543 0.076247 0.25223  -0.00631589285714
 C6 0.176549 0.576254 0.25222  -0.00631589285714
 C6 0.676553 0.076247 0.2522  -0.00631589285714
 C6 0.676562 0.576252 0.25222  -0.00631589285714
 C7 0.161751 0.185267 0.20956  0.161719107143
 C7 0.161753 0.685274 0.20956  0.161719107143
 C7 0.66176 0.185267 0.20956  0.161719107143
 C7 0.661761 0.685274 0.20956  0.161719107143
 C7 0.091116 0.103095 0.15914  0.161719107143
 C7 0.091115 0.603103 0.15914  0.161719107143
 C7 0.591123 0.103095 0.15914  0.161719107143
 C7 0.591123 0.603104 0.15914  0.161719107143
 C5 0.122692 0.056979 0.20344  -0.129715892857
 C5 0.122689 0.556987 0.20344  -0.129715892857
 C5 0.622698 0.056979 0.20344  -0.129715892857
 C5 0.622696 0.556988 0.20344  -0.129715892857
 C1 0.435008 0.239451 0.  0.365279107143
 C1 0.43501 0.739458 0.  0.365279107143
 C1 0.935018 0.239452 0.  0.365279107143
 C1 0.93502 0.739459 0.  0.365279107143
 C1 0.071744 0.092962 0.9006  0.365279107143
 C1 0.071747 0.592971 0.90063  0.365279107143
 C1 0.571754 0.092964 0.90063  0.365279107143
 C1 0.571757 0.592972 0.90063  0.365279107143
 C2 0.460268 0.131506 0.85563  0.457014107143
 C2 0.460271 0.631514 0.85563  0.457014107143
 C2 0.960277 0.131505 0.85563  0.457014107143
 C2 0.96028 0.631514 0.85563  0.457014107143
 C3 0.455597 0.171576 0.91641  -0.105035892857
 C3 0.455599 0.671584 0.91641  -0.105035892857
 C3 0.955606 0.171576 0.91641  -0.105035892857
 C3 0.955608 0.671584 0.91641  -0.105035892857
 C2 0.013805 0.167311 0.96566  0.457014107143
 C2 0.013807 0.667319 0.96566  0.457014107143
 C2 0.513814 0.167312 0.96566  0.457014107143
 C2 0.513816 0.66732 0.96566  0.457014107143
 C4 0.461686 0.277743 0.19832  0.639684107143
 C4 0.461687 0.777751 0.19832  0.639684107143
 C4 0.961698 0.277742 0.19833  0.639684107143
 C4 0.961699 0.77775 0.1983  0.639684107143
 C5 0.44634 0.391793 0.24530  -0.129715892857
 C5 0.446343 0.8918 0.24530  -0.129715892857
 C5 0.946346 0.391793 0.245  -0.129715892857
 C5 0.946349 0.8918 0.24530  -0.129715892857
 C6 0.426634 0.32625 0.24784  -0.00631589285714
 C6 0.426635 0.826257 0.24784  -0.00631589285714
 C6 0.926647 0.326248 0.24785  -0.00631589285714
 C6 0.926647 0.826256 0.24784  -0.00631589285714
 C7 0.411939 0.435225 0.29058  0.161719107143
 C7 0.411942 0.935233 0.29058  0.161719107143
 C7 0.911948 0.435226 0.29058  0.161719107143
 C7 0.91195 0.935233 0.29058  0.161719107143
 C7 0.34121 0.353045 0.34095  0.161719107143
 C7 0.341212 0.853052 0.34095  0.161719107143
 C7 0.841217 0.353046 0.3409  0.161719107143
 C7 0.84122 0.853053 0.3409  0.161719107143
 C5 0.37276 0.30696 0.2966  -0.129715892857
 C5 0.372763 0.806967 0.29663  -0.129715892857
 C5 0.872765 0.306961 0.29662  -0.129715892857
 C5 0.872768 0.806968 0.29662  -0.129715892857
 C1 0.185028 0.260532 0.99785  0.365279107143
 C1 0.18503 0.760539 0.99785  0.365279107143
 C1 0.685037 0.260531 0.99785  0.365279107143
 C1 0.685039 0.76054 0.99785  0.365279107143
 C1 0.321851 0.407092 0.09931  0.365279107143
 C1 0.321852 0.9071 0.09931  0.365279107143
 C1 0.821859 0.407094 0.09931  0.365279107143
 C1 0.821861 0.9071 0.09931  0.365279107143
 C2 0.210324 0.368532 0.14433  0.457014107143
 C2 0.210326 0.86854 0.14433  0.457014107143
 C2 0.710332 0.368533 0.14433  0.457014107143
 C2 0.710335 0.86854 0.14433  0.457014107143
 C3 0.205643 0.328443 0.08356  -0.105035892857
 C3 0.205645 0.82845 0.08356  -0.105035892857
 C3 0.705652 0.328443 0.08356  -0.105035892857
 C3 0.705654 0.82845 0.08356  -0.105035892857
 C2 0.263878 0.332706 0.03432  0.457014107143
 C2 0.26388 0.832713 0.03432  0.457014107143
 C2 0.763887 0.332706 0.03432  0.457014107143
 C2 0.763889 0.832713 0.03432  0.457014107143
 C4 0.211674 0.222269 0.80166  0.639684107143
 C4 0.211679 0.722277 0.80166  0.639684107143
 C4 0.71169 0.222271 0.80166  0.639684107143
 C4 0.711685 0.722276 0.80166  0.639684107143
 C5 0.196257 0.108218 0.75471  -0.129715892857
 C5 0.196256 0.608225 0.75471  -0.129715892857
 C5 0.69626 0.108218 0.75471  -0.129715892857
 C5 0.696269 0.608226 0.7547  -0.129715892857
 C6 0.176601 0.173755 0.7521  -0.00631589285714
 C6 0.176605 0.673764 0.75214  -0.00631589285714
 C6 0.676617 0.173758 0.75214  -0.00631589285714
 C6 0.676611 0.673762 0.75215  -0.00631589285714
 C7 0.161864 0.064772 0.70941  0.161719107143
 C7 0.161866 0.56478 0.70941  0.161719107143
 C7 0.661872 0.064773 0.70941  0.161719107143
 C7 0.661876 0.56478 0.70941  0.161719107143
 C7 0.09123 0.146932 0.65901  0.161719107143
 C7 0.09123 0.646938 0.65901  0.161719107143
 C7 0.591234 0.14693 0.65901  0.161719107143
 C7 0.591241 0.646939 0.65901  0.161719107143
 C5 0.122777 0.19303 0.70334  -0.129715892857
 C5 0.122773 0.693035 0.7033  -0.129715892857
 C5 0.622775 0.193027 0.70335  -0.129715892857
 C5 0.622788 0.693037 0.70334  -0.129715892857
 N1 0.999885 0.039371 0.51963  -0.417075892857
 N1 0.999887 0.539378 0.51963  -0.417075892857
 N1 0.499894 0.039371 0.51963  -0.417075892857
 N1 0.499896 0.539378 0.51963  -0.417075892857
 N2 0.073643 0.121764 0.45989  -0.573525892857
 N2 0.073645 0.621771 0.45989  -0.573525892857
 N2 0.573652 0.121764 0.45989  -0.573525892857
 N2 0.573654 0.621771 0.45989  -0.573525892857
 N1 0.405819 0.031775 0.44068  -0.417075892857
 N1 0.405821 0.531783 0.44068  -0.417075892857
 N1 0.905828 0.031775 0.44068  -0.417075892857
 N1 0.90583 0.531783 0.44068  -0.417075892857
 N2 0.020046 0.157963 0.34914  -0.573525892857
 N2 0.020048 0.65797 0.34914  -0.573525892857
 N2 0.520055 0.157963 0.34914  -0.573525892857
 N2 0.520057 0.657971 0.34914  -0.573525892857
 N3 0.410034 0.118583 0.30185  -0.666165892857
 N3 0.410036 0.61859 0.30185  -0.666165892857
 N3 0.910044 0.118583 0.30185  -0.666165892857
 N3 0.910045 0.61859 0.30185  -0.666165892857
 N1 0.360267 0.333671 0.83795  -0.417075892857
 N1 0.360271 0.833678 0.83795  -0.417075892857
 N1 0.860276 0.33367 0.83795  -0.417075892857
 N1 0.860276 0.833678 0.83795  -0.417075892857
 N1 0.249852 0.46061 0.48029  -0.417075892857
 N1 0.249855 0.960618 0.48029  -0.417075892857
 N1 0.749861 0.46061 0.48029  -0.417075892857
 N1 0.749864 0.960618 0.48029  -0.417075892857
 N2 0.323569 0.37826 0.54001  -0.573525892857
 N2 0.323571 0.878267 0.54001  -0.573525892857
 N2 0.823578 0.378259 0.54001  -0.573525892857
 N2 0.82358 0.878267 0.54001  -0.573525892857
 N1 0.155811 0.468217 0.55929  -0.417075892857
 N1 0.155813 0.968224 0.55929  -0.417075892857
 N1 0.65582 0.468217 0.55929  -0.417075892857
 N1 0.655823 0.968225 0.55929  -0.417075892857
 N2 0.269991 0.342077 0.65080  -0.573525892857
 N2 0.269993 0.842085 0.65080  -0.573525892857
 N2 0.77 0.342077 0.65080  -0.573525892857
 N2 0.770002 0.842084 0.65080  -0.573525892857
 N3 0.159999 0.381409 0.69813  -0.666165892857
 N3 0.160002 0.881417 0.69813  -0.666165892857
 N3 0.660009 0.38141 0.69813  -0.666165892857
 N3 0.66001 0.881417 0.69813  -0.666165892857
 N1 0.110226 0.166353 0.162  -0.417075892857
 N1 0.110231 0.66636 0.16209  -0.417075892857
 N1 0.610235 0.166352 0.162  -0.417075892857
 N1 0.610244 0.666359 0.16209  -0.417075892857
 N1 0.99967 0.210619 0.01987  -0.417075892857
 N1 0.999672 0.710626 0.01987  -0.417075892857
 N1 0.499679 0.210619 0.01987  -0.417075892857
 N1 0.499681 0.710626 0.01987  -0.417075892857
 N2 0.073596 0.128446 0.96017  -0.573525892857
 N2 0.073599 0.628454 0.9601  -0.573525892857
 N2 0.573606 0.128447 0.9601  -0.573525892857
 N2 0.573609 0.628455 0.96016  -0.573525892857
 N1 0.405668 0.218136 0.94083  -0.417075892857
 N1 0.40567 0.718143 0.94083  -0.417075892857
 N1 0.905678 0.218136 0.94083  -0.417075892857
 N1 0.905679 0.718143 0.94083  -0.417075892857
 N2 0.020161 0.092222 0.84937  -0.573525892857
 N2 0.020164 0.592231 0.84937  -0.573525892857
 N2 0.520171 0.092223 0.84937  -0.573525892857
 N2 0.520174 0.592232 0.84937  -0.573525892857
 N3 0.410048 0.131299 0.80207  -0.666165892857
 N3 0.41005 0.631307 0.80207  -0.666165892857
 N3 0.910056 0.131298 0.80207  -0.666165892857
 N3 0.910059 0.631307 0.80207  -0.666165892857
 N1 0.360356 0.416298 0.33801  -0.417075892857
 N1 0.360357 0.916306 0.33801  -0.417075892857
 N1 0.860368 0.416298 0.3380  -0.417075892857
 N1 0.860369 0.916306 0.33801  -0.417075892857
 N1 0.249722 0.289375 0.9801  -0.417075892857
 N1 0.249724 0.789382 0.9801  -0.417075892857
 N1 0.749731 0.289374 0.98013  -0.417075892857
 N1 0.749733 0.789382 0.9801  -0.417075892857
 N2 0.323696 0.371589 0.03979  -0.573525892857
 N2 0.323698 0.871596 0.03979  -0.573525892857
 N2 0.823705 0.37159 0.03979  -0.573525892857
 N2 0.823707 0.871597 0.03979  -0.573525892857
 N1 0.155687 0.281862 0.05917  -0.417075892857
 N1 0.155689 0.781869 0.05917  -0.417075892857
 N1 0.655696 0.281861 0.05917  -0.417075892857
 N1 0.655699 0.781869 0.05917  -0.417075892857
 N2 0.270253 0.407835 0.15057  -0.573525892857
 N2 0.270255 0.907842 0.15057  -0.573525892857
 N2 0.770261 0.407836 0.15057  -0.573525892857
 N2 0.770264 0.907843 0.15057  -0.573525892857
 N3 0.160083 0.368734 0.19788  -0.666165892857
 N3 0.160085 0.868742 0.19788  -0.666165892857
 N3 0.660092 0.368734 0.19788  -0.666165892857
 N3 0.660094 0.868742 0.19788  -0.666165892857
 N1 0.110343 0.083689 0.66195  -0.417075892857
 N1 0.110348 0.583696 0.6619  -0.417075892857
 N1 0.610358 0.083689 0.66194  -0.417075892857
 N1 0.610353 0.583696 0.66195  -0.417075892857
 O1 0.018898 0.450038 0.66379  -0.601885892857
 O1 0.018903 0.950047 0.66379  -0.601885892857
 O1 0.518908 0.450039 0.66379  -0.601885892857
 O1 0.518908 0.950045 0.6637  -0.601885892857
 O2 0.435442 0.027708 0.69178  -0.569405892857
 O2 0.435445 0.527717 0.69178  -0.569405892857
 O2 0.935454 0.02771 0.69178  -0.569405892857
 O2 0.935454 0.527716 0.69178  -0.569405892857
 O1 0.26888 0.049953 0.33616  -0.601885892857
 O1 0.26888 0.549962 0.33616  -0.601885892857
 O1 0.768888 0.049954 0.33616  -0.601885892857
 O1 0.768887 0.549964 0.33616  -0.601885892857
 O2 0.185277 0.472316 0.30821  -0.569405892857
 O2 0.185282 0.972322 0.30820  -0.569405892857
 O2 0.685284 0.472317 0.30821  -0.569405892857
 O2 0.68529 0.972322 0.30820  -0.569405892857
 O1 0.0189 0.299988 0.16384  -0.601885892857
 O1 0.018903 0.799995 0.1638  -0.601885892857
 O1 0.518912 0.299986 0.16385  -0.601885892857
 O1 0.518915 0.799993 0.16385  -0.601885892857
 O2 0.43521 0.222385 0.19176  -0.569405892857
 O2 0.435212 0.722393 0.19176  -0.569405892857
 O2 0.935217 0.222386 0.19175  -0.569405892857
 O2 0.93522 0.722393 0.1917  -0.569405892857
 O1 0.268888 0.200035 0.83612  -0.601885892857
 O1 0.268887 0.70004 0.83612  -0.601885892857
 O1 0.768891 0.200031 0.83613  -0.601885892857
 O1 0.768899 0.700042 0.83612  -0.601885892857
 O2 0.185244 0.277621 0.80823  -0.569405892857
 O2 0.185245 0.777628 0.80823  -0.569405892857
 O2 0.68525 0.27762 0.80823  -0.569405892857
 O2 0.685256 0.777629 0.80823  -0.569405892857
