#======================================================================

# CRYSTAL DATA

#----------------------------------------------------------------------

data_VESTA_phase_1


_pd_phase_name                         MOF
_cell_length_a                         18.40500
_cell_length_b                         18.41800
_cell_length_c                         18.41800
_cell_angle_alpha                      60.25200
_cell_angle_beta                       60.26900
_cell_angle_gamma                      60.26900
_symmetry_space_group_name_H-M         "P 1"
_symmetry_Int_Tables_number            1

loop_
_symmetry_equiv_pos_as_xyz
   "x, y, z"

loop_
   _atom_site_label
   _atom_site_fract_x
   _atom_site_fract_y
   _atom_site_fract_z
 _atom_site_charge
 Zn1 0.293272 0.293103 0.11967  1.13406863208
 Zn1 0.293766 0.293756 0.29376  1.13406863208
 Zn1 0.119592 0.293238 0.29324  1.13406863208
 Zn1 0.293274 0.119662 0.29311  1.13406863208
 Zn1 0.706748 0.706858 0.88032  1.13406863208
 Zn1 0.706254 0.706204 0.7062  1.13406863208
 Zn1 0.706746 0.880298 0.70688  1.13406863208
 Zn1 0.880428 0.706721 0.70674  1.13406863208
 H1 0.45132 0.45127 0.93220  0.102647798742
 H1 0.452523 0.45245 0.16420  0.102647798742
 H1 0.931887 0.164221 0.45180  0.102647798742
 H1 0.16434 0.931995 0.45170  0.102647798742
 H1 0.451816 0.931901 0.16423  0.102647798742
 H1 0.45181 0.164221 0.93193  0.102647798742
 H1 0.932018 0.451388 0.45139  0.102647798742
 H1 0.164316 0.45245 0.45245  0.102647798742
 H1 0.452525 0.164201 0.45245  0.102647798742
 H1 0.451334 0.93217 0.45128  0.102647798742
 H1 0.931883 0.451796 0.16422  0.102647798742
 H1 0.164341 0.451685 0.93202  0.102647798742
 H1 0.548702 0.548688 0.06779  0.102647798742
 H1 0.547499 0.547508 0.83578  0.102647798742
 H1 0.83568 0.067965 0.54829  0.102647798742
 H1 0.068132 0.835738 0.54819  0.102647798742
 H1 0.068137 0.548164 0.83576  0.102647798742
 H1 0.835679 0.548274 0.06796  0.102647798742
 H1 0.548688 0.06779 0.54870  0.102647798742
 H1 0.547498 0.835759 0.5475  0.102647798742
 H1 0.835703 0.547514 0.54754  0.102647798742
 H1 0.068001 0.548576 0.548  0.102647798742
 H1 0.548202 0.068059 0.83576  0.102647798742
 H1 0.548208 0.83574 0.06805  0.102647798742
 C1 0.473033 0.472979 0.96114  -0.0534888679245
 C1 0.473717 0.473661 0.09227  -0.0534888679245
 C1 0.960938 0.092279 0.47331  -0.0534888679245
 C1 0.092355 0.960982 0.47325  -0.0534888679245
 C1 0.473319 0.960942 0.09228  -0.0534888679245
 C1 0.473316 0.092275 0.96097  -0.0534888679245
 C1 0.961063 0.473037 0.47306  -0.0534888679245
 C1 0.092336 0.473646 0.4736  -0.0534888679245
 C1 0.473687 0.092264 0.47369  -0.0534888679245
 C1 0.473009 0.961116 0.4730  -0.0534888679245
 C1 0.960935 0.473284 0.09228  -0.0534888679245
 C1 0.092356 0.473216 0.96101  -0.0534888679245
 C1 0.526988 0.526981 0.03884  -0.0534888679245
 C1 0.526304 0.526299 0.90772  -0.0534888679245
 C1 0.907665 0.038977 0.52673  -0.0534888679245
 C1 0.039082 0.907681 0.52668  -0.0534888679245
 C1 0.039085 0.526676 0.9077  -0.0534888679245
 C1 0.907664 0.526744 0.03898  -0.0534888679245
 C1 0.527012 0.038844 0.52696  -0.0534888679245
 C1 0.526334 0.907695 0.52629  -0.0534888679245
 C1 0.907684 0.526317 0.52632  -0.0534888679245
 C1 0.038956 0.526925 0.52693  -0.0534888679245
 C1 0.5267 0.039019 0.90770  -0.0534888679245
 C1 0.526703 0.907686 0.03902  -0.0534888679245
 C2 0.389063 0.388968 0.11117  0.734041132075
 C3 0.446383 0.446321 0.05377  -0.122633867925
 C2 0.110912 0.110933 0.3886  0.734041132075
 C3 0.053606 0.05362 0.44620  -0.122633867925
 C2 0.388783 0.110876 0.11088  0.734041132075
 C3 0.446242 0.05359 0.05359  -0.122633867925
 C2 0.111129 0.38902 0.38905  0.734041132075
 C3 0.053751 0.446379 0.4463  -0.122633867925
 C2 0.389039 0.111164 0.38900  0.734041132075
 C3 0.446431 0.053762 0.44628  -0.122633867925
 C2 0.110909 0.388667 0.11094  0.734041132075
 C3 0.053604 0.446222 0.05363  -0.122633867925
 C2 0.610954 0.610995 0.8888  0.734041132075
 C3 0.553641 0.553634 0.94622  -0.122633867925
 C2 0.889108 0.889027 0.61130  0.734041132075
 C3 0.946413 0.94634 0.55379  -0.122633867925
 C2 0.889111 0.611294 0.88905  0.734041132075
 C3 0.946416 0.553737 0.94636  -0.122633867925
 C2 0.61098 0.888796 0.61099  0.734041132075
 C3 0.553592 0.946198 0.55370  -0.122633867925
 C2 0.88889 0.610938 0.61094  0.734041132075
 C3 0.946269 0.553587 0.5536  -0.122633867925
 C2 0.61124 0.889085 0.88910  0.734041132075
 C3 0.553773 0.946371 0.94639  -0.122633867925
 O1 0.250031 0.250019 0.2500  -1.29205886792
 O1 0.749989 0.749941 0.74996  -1.29205886792
 O2 0.366727 0.366654 0.07161  -0.625213867925
 O2 0.367223 0.367056 0.19492  -0.625213867925
 O2 0.071342 0.19465 0.3664  -0.625213867925
 O2 0.194675 0.0714 0.36650  -0.625213867925
 O2 0.366585 0.071334 0.19461  -0.625213867925
 O2 0.366584 0.194603 0.0713  -0.625213867925
 O2 0.071509 0.366733 0.36673  -0.625213867925
 O2 0.194937 0.367141 0.36713  -0.625213867925
 O2 0.367221 0.19491 0.36706  -0.625213867925
 O2 0.366739 0.071601 0.36665  -0.625213867925
 O2 0.071339 0.366457 0.19466  -0.625213867925
 O2 0.194673 0.366504 0.07141  -0.625213867925
 O2 0.633292 0.633307 0.92838  -0.625213867925
 O2 0.632796 0.632905 0.80507  -0.625213867925
 O2 0.805344 0.92856 0.63349  -0.625213867925
 O2 0.928678 0.80531 0.63352  -0.625213867925
 O2 0.92868 0.633505 0.80533  -0.625213867925
 O2 0.805347 0.633455 0.92858  -0.625213867925
 O2 0.633278 0.928359 0.63334  -0.625213867925
 O2 0.632801 0.805049 0.63292  -0.625213867925
 O2 0.805082 0.632819 0.63286  -0.625213867925
 O2 0.928511 0.633225 0.63326  -0.625213867925
 O2 0.633437 0.928626 0.80538  -0.625213867925
 O2 0.633435 0.805357 0.92864  -0.625213867925
