#======================================================================

# CRYSTAL DATA

#----------------------------------------------------------------------

data_VESTA_phase_1


_pd_phase_name                         MOF
_cell_length_a                         23.02000
_cell_length_b                         14.98000
_cell_length_c                         14.98200
_cell_angle_alpha                      90.00800
_cell_angle_beta                       89.98000
_cell_angle_gamma                      90.01600
_symmetry_space_group_name_H-M         "P 1"
_symmetry_Int_Tables_number            1

loop_
_symmetry_equiv_pos_as_xyz
   "x, y, z"

loop_
   _atom_site_label
   _atom_site_fract_x
   _atom_site_fract_y
   _atom_site_fract_z
 _atom_site_charge
 Zn1 0.37501 0.887165 0.11286  0.903564489796
 Zn1 0.875019 0.887165 0.11286  0.903564489796
 Zn1 0.124995 0.112873 0.88712  0.903564489796
 Zn1 0.625001 0.11288 0.88712  0.903564489796
 Zn1 0.250003 0.387148 0.38712  0.903564489796
 Zn1 0.750011 0.387147 0.38712  0.903564489796
 Zn1 0.999998 0.612886 0.61284  0.903564489796
 Zn1 0.500006 0.612881 0.61284  0.903564489796
 H1 0.213927 0.373309 0.09066  0.129130989796
 H1 0.713937 0.373319 0.09065  0.129130989796
 H1 0.284176 0.398988 0.04525  0.129130989796
 H1 0.784187 0.398997 0.04525  0.129130989796
 H1 0.266675 0.287661 0.07182  0.129130989796
 H1 0.766685 0.28767 0.0718  0.129130989796
 H1 0.447842 0.307569 0.29756  0.129130989796
 H1 0.947847 0.307557 0.29756  0.129130989796
 H1 0.456247 0.414574 0.25014  0.129130989796
 H1 0.956258 0.414562 0.25015  0.129130989796
 H1 0.445233 0.403526 0.36803  0.129130989796
 H1 0.945241 0.403511 0.3680  0.129130989796
 H1 0.328396 0.201922 0.23160  0.129130989796
 H1 0.828403 0.201922 0.23160  0.129130989796
 H1 0.328689 0.03661 0.22147  0.129130989796
 H1 0.828696 0.03661 0.22147  0.129130989796
 H1 0.446882 0.038482 0.01320  0.129130989796
 H1 0.946891 0.038481 0.01320  0.129130989796
 H1 0.4521 0.203494 0.01298  0.129130989796
 H1 0.95211 0.203494 0.0129  0.129130989796
 H1 0.46386 0.626721 0.9093  0.129130989796
 H1 0.963869 0.626722 0.90932  0.129130989796
 H1 0.03408 0.601042 0.95470  0.129130989796
 H1 0.534087 0.601038 0.95470  0.129130989796
 H1 0.016626 0.71237 0.92814  0.129130989796
 H1 0.516635 0.712365 0.92813  0.129130989796
 H1 0.197846 0.692475 0.70231  0.129130989796
 H1 0.697841 0.692516 0.7023  0.129130989796
 H1 0.206203 0.585476 0.74974  0.129130989796
 H1 0.706217 0.585514 0.74972  0.129130989796
 H1 0.195224 0.59651 0.63185  0.129130989796
 H1 0.695232 0.596561 0.63184  0.129130989796
 H1 0.078376 0.798112 0.76835  0.129130989796
 H1 0.578383 0.798123 0.76834  0.129130989796
 H1 0.078668 0.963422 0.77851  0.129130989796
 H1 0.578679 0.963434 0.778  0.129130989796
 H1 0.196812 0.961602 0.98672  0.129130989796
 H1 0.696819 0.961618 0.98671  0.129130989796
 H1 0.202025 0.796589 0.98690  0.129130989796
 H1 0.702028 0.796604 0.98690  0.129130989796
 H1 0.088898 0.409344 0.87327  0.129130989796
 H1 0.588911 0.409354 0.87329  0.129130989796
 H1 0.159134 0.454789 0.89892  0.129130989796
 H1 0.65915 0.454793 0.89893  0.129130989796
 H1 0.14167 0.428147 0.78762  0.129130989796
 H1 0.641681 0.428156 0.78763  0.129130989796
 H1 0.322867 0.202416 0.8075  0.129130989796
 H1 0.822861 0.202423 0.80749  0.129130989796
 H1 0.331218 0.249887 0.91453  0.129130989796
 H1 0.831234 0.249865 0.91449  0.129130989796
 H1 0.320218 0.131975 0.90350  0.129130989796
 H1 0.820225 0.131957 0.90343  0.129130989796
 H1 0.203373 0.268398 0.70189  0.129130989796
 H1 0.70338 0.268398 0.7018  0.129130989796
 H1 0.203653 0.278549 0.53660  0.129130989796
 H1 0.70366 0.278549 0.53660  0.129130989796
 H1 0.321865 0.486809 0.53842  0.129130989796
 H1 0.821871 0.486807 0.53841  0.129130989796
 H1 0.327089 0.487015 0.7034  0.129130989796
 H1 0.827098 0.487014 0.70340  0.129130989796
 H1 0.338875 0.590656 0.12672  0.129130989796
 H1 0.838883 0.590654 0.1267  0.129130989796
 H1 0.409109 0.545271 0.10099  0.129130989796
 H1 0.909118 0.54527 0.10  0.129130989796
 H1 0.391633 0.571837 0.21232  0.129130989796
 H1 0.89164 0.571834 0.21232  0.129130989796
 H1 0.072824 0.797694 0.19245  0.129130989796
 H1 0.572829 0.797696 0.19246  0.129130989796
 H1 0.081225 0.750259 0.08545  0.129130989796
 H1 0.581235 0.750266 0.08546  0.129130989796
 H1 0.070236 0.86816 0.09652  0.129130989796
 H1 0.570244 0.868167 0.09653  0.129130989796
 H1 0.453374 0.731643 0.29814  0.129130989796
 H1 0.953383 0.731642 0.29813  0.129130989796
 H1 0.453678 0.721485 0.46342  0.129130989796
 H1 0.953688 0.721487 0.46342  0.129130989796
 H1 0.07184 0.513266 0.46142  0.129130989796
 H1 0.571846 0.513265 0.46142  0.129130989796
 H1 0.077038 0.513076 0.29643  0.129130989796
 H1 0.577046 0.513077 0.29643  0.129130989796
 H1 0.161141 0.126742 0.59064  0.129130989796
 H1 0.661142 0.126702 0.59063  0.129130989796
 H1 0.09091 0.101009 0.54526  0.129130989796
 H1 0.590907 0.100984 0.54526  0.129130989796
 H1 0.108373 0.212352 0.57184  0.129130989796
 H1 0.608388 0.212327 0.57180  0.129130989796
 H1 0.427168 0.192423 0.79767  0.129130989796
 H1 0.9272 0.192498 0.79766  0.129130989796
 H1 0.418791 0.08542 0.75021  0.129130989796
 H1 0.918788 0.085482 0.75025  0.129130989796
 H1 0.429772 0.096457 0.86810  0.129130989796
 H1 0.929781 0.096561 0.86813  0.129130989796
 H1 0.046631 0.298159 0.73161  0.129130989796
 H1 0.546638 0.298146 0.73160  0.129130989796
 H1 0.046325 0.463467 0.72144  0.129130989796
 H1 0.546335 0.463452 0.72143  0.129130989796
 H1 0.42818 0.461456 0.51324  0.129130989796
 H1 0.928189 0.461467 0.51324  0.129130989796
 H1 0.42298 0.29644 0.51306  0.129130989796
 H1 0.922991 0.29645 0.51306  0.129130989796
 H1 0.411094 0.873344 0.40931  0.129130989796
 H1 0.911099 0.873354 0.40931  0.129130989796
 H1 0.340854 0.898999 0.45474  0.129130989796
 H1 0.840857 0.899006 0.45474  0.129130989796
 H1 0.358324 0.787682 0.42811  0.129130989796
 H1 0.858331 0.787689 0.42812  0.129130989796
 H1 0.177157 0.807533 0.20242  0.129130989796
 H1 0.677167 0.807527 0.20242  0.129130989796
 H1 0.168772 0.914547 0.24984  0.129130989796
 H1 0.668778 0.91454 0.24984  0.129130989796
 H1 0.179786 0.903472 0.13195  0.129130989796
 H1 0.679794 0.903465 0.13195  0.129130989796
 H1 0.296624 0.70194 0.26839  0.129130989796
 H1 0.796632 0.701941 0.26839  0.129130989796
 H1 0.296346 0.536631 0.27854  0.129130989796
 H1 0.796353 0.536632 0.2785  0.129130989796
 H1 0.178136 0.538458 0.4867  0.129130989796
 H1 0.678142 0.538457 0.48678  0.129130989796
 H1 0.172908 0.703467 0.48699  0.129130989796
 H1 0.672914 0.703466 0.48699  0.129130989796
 H1 0.286088 0.090659 0.37326  0.129130989796
 H1 0.786095 0.090656 0.37327  0.129130989796
 H1 0.215842 0.045243 0.39895  0.129130989796
 H1 0.715847 0.045244 0.39896  0.129130989796
 H1 0.233335 0.071821 0.28763  0.129130989796
 H1 0.733345 0.071811 0.28764  0.129130989796
 H1 0.052172 0.297603 0.30754  0.129130989796
 H1 0.552182 0.297599 0.30753  0.129130989796
 H1 0.043759 0.250178 0.41453  0.129130989796
 H1 0.543766 0.25018 0.41452  0.129130989796
 H1 0.054775 0.368083 0.40348  0.129130989796
 H1 0.554783 0.368085 0.40347  0.129130989796
 H1 0.171617 0.231631 0.20189  0.129130989796
 H1 0.671626 0.23163 0.20189  0.129130989796
 H1 0.171318 0.221501 0.03660  0.129130989796
 H1 0.671326 0.221503 0.03660  0.129130989796
 H1 0.053131 0.013205 0.03849  0.129130989796
 H1 0.553137 0.013211 0.03849  0.129130989796
 H1 0.047919 0.01299 0.2034  0.129130989796
 H1 0.547926 0.012992 0.20348  0.129130989796
 H1 0.036133 0.909393 0.62668  0.129130989796
 H1 0.536141 0.909391 0.6266  0.129130989796
 H1 0.465911 0.954782 0.60102  0.129130989796
 H1 0.96592 0.954786 0.60102  0.129130989796
 H1 0.483373 0.928208 0.71233  0.129130989796
 H1 0.983377 0.928206 0.71233  0.129130989796
 H1 0.302149 0.702365 0.69244  0.129130989796
 H1 0.802166 0.702369 0.69246  0.129130989796
 H1 0.293798 0.749805 0.58545  0.129130989796
 H1 0.793801 0.749793 0.58548  0.129130989796
 H1 0.304777 0.631902 0.59648  0.129130989796
 H1 0.804785 0.631893 0.59652  0.129130989796
 H1 0.42163 0.768399 0.79807  0.129130989796
 H1 0.921639 0.768399 0.79807  0.129130989796
 H1 0.421338 0.778555 0.96336  0.129130989796
 H1 0.921345 0.778552 0.96336  0.129130989796
 H1 0.303177 0.986781 0.96157  0.129130989796
 H1 0.803186 0.98678 0.9615  0.129130989796
 H1 0.297964 0.986977 0.79658  0.129130989796
 H1 0.797974 0.986978 0.7965  0.129130989796
 C1 0.260331 0.35726 0.09309  -0.490358010204
 C1 0.760341 0.357269 0.09309  -0.490358010204
 C2 0.28152 0.370607 0.18790  0.552269489796
 C2 0.781529 0.370612 0.18790  0.552269489796
 C3 0.342448 0.36548 0.20684  -0.172880510204
 C3 0.842457 0.365481 0.20684  -0.172880510204
 C2 0.367988 0.382192 0.29236  0.552269489796
 C2 0.867996 0.38219 0.29236  0.552269489796
 C1 0.433276 0.377322 0.30242  -0.490358010204
 C1 0.933284 0.377311 0.30242  -0.490358010204
 C3 0.389133 0.217872 0.12138  -0.172880510204
 C3 0.889141 0.217871 0.12138  -0.172880510204
 C4 0.354948 0.168602 0.18145  -0.226000510204
 C4 0.854956 0.168602 0.18145  -0.226000510204
 C5 0.355149 0.076291 0.17623  0.169249489796
 C5 0.855157 0.076291 0.17623  0.169249489796
 C5 0.420879 0.077208 0.06012  0.169249489796
 C5 0.920887 0.077207 0.06012  0.169249489796
 C4 0.423544 0.169743 0.06026  -0.226000510204
 C4 0.923553 0.169743 0.06026  -0.226000510204
 C1 0.010263 0.642772 0.90687  -0.490358010204
 C1 0.510271 0.642766 0.90687  -0.490358010204
 C2 0.031475 0.62943 0.81205  0.552269489796
 C2 0.531484 0.629416 0.81205  0.552269489796
 C3 0.092409 0.634561 0.79308  -0.172880510204
 C3 0.592416 0.634569 0.79308  -0.172880510204
 C2 0.117967 0.617849 0.70756  0.552269489796
 C2 0.617975 0.617857 0.70755  0.552269489796
 C1 0.183258 0.622719 0.69746  -0.490358010204
 C1 0.683265 0.622756 0.69745  -0.490358010204
 C3 0.139083 0.782187 0.87853  -0.172880510204
 C3 0.63909 0.782201 0.87852  -0.172880510204
 C4 0.104916 0.831441 0.81849  -0.226000510204
 C4 0.604924 0.831454 0.81848  -0.226000510204
 C5 0.105116 0.923751 0.82373  0.169249489796
 C5 0.605127 0.923764 0.82371  0.169249489796
 C5 0.170818 0.922863 0.93981  0.169249489796
 C5 0.670828 0.922877 0.93979  0.169249489796
 C4 0.173482 0.83033 0.93965  -0.226000510204
 C4 0.673488 0.830344 0.93964  -0.226000510204
 C1 0.135307 0.406916 0.85722  -0.490358010204
 C1 0.635319 0.406924 0.85723  -0.490358010204
 C2 0.156505 0.312101 0.87058  0.552269489796
 C2 0.656515 0.312107 0.87059  0.552269489796
 C3 0.217434 0.293157 0.86543  -0.172880510204
 C3 0.717443 0.293158 0.86543  -0.172880510204
 C2 0.242978 0.207643 0.88215  0.552269489796
 C2 0.742987 0.207641 0.88213  0.552269489796
 C1 0.308269 0.197582 0.87729  -0.490358010204
 C1 0.808277 0.197572 0.87724  -0.490358010204
 C3 0.264115 0.378614 0.71781  -0.172880510204
 C3 0.764122 0.378615 0.71780  -0.172880510204
 C4 0.229924 0.318551 0.66856  -0.226000510204
 C4 0.729931 0.318552 0.66856  -0.226000510204
 C5 0.23012 0.32378 0.5762  0.169249489796
 C5 0.730126 0.323781 0.57626  0.169249489796
 C5 0.295859 0.439888 0.57715  0.169249489796
 C5 0.795865 0.439888 0.57715  0.169249489796
 C4 0.298528 0.439742 0.66967  -0.226000510204
 C4 0.798536 0.439742 0.66967  -0.226000510204
 C1 0.385282 0.593107 0.14274  -0.490358010204
 C1 0.88529 0.593105 0.14274  -0.490358010204
 C2 0.406493 0.68794 0.12941  0.552269489796
 C2 0.906501 0.687938 0.12941  0.552269489796
 C3 0.467423 0.706913 0.13456  -0.172880510204
 C3 0.967432 0.70691 0.13455  -0.172880510204
 C2 0.492982 0.792443 0.11783  0.552269489796
 C2 0.99299 0.792441 0.11783  0.552269489796
 C1 0.058263 0.802541 0.12271  -0.490358010204
 C1 0.558271 0.802545 0.12271  -0.490358010204
 C3 0.014087 0.621455 0.28212  -0.172880510204
 C3 0.514094 0.621456 0.28212  -0.172880510204
 C4 0.479922 0.681501 0.33142  -0.226000510204
 C4 0.979932 0.6815 0.33142  -0.226000510204
 C5 0.48013 0.676266 0.42372  0.169249489796
 C5 0.98014 0.676267 0.42372  0.169249489796
 C5 0.045838 0.560183 0.42273  0.169249489796
 C5 0.545844 0.560182 0.42273  0.169249489796
 C4 0.048494 0.560337 0.33021  -0.226000510204
 C4 0.548501 0.560337 0.33021  -0.226000510204
 C1 0.114732 0.14276 0.59309  -0.490358010204
 C1 0.614736 0.14274 0.59308  -0.490358010204
 C2 0.093518 0.129411 0.68791  0.552269489796
 C2 0.593525 0.129427 0.68791  0.552269489796
 C3 0.032587 0.134562 0.70689  -0.172880510204
 C3 0.532592 0.134549 0.70688  -0.172880510204
 C2 0.007026 0.117842 0.79241  0.552269489796
 C2 0.507034 0.117831 0.79240  0.552269489796
 C1 0.441743 0.122674 0.80250  -0.490358010204
 C1 0.941754 0.12274 0.80252  -0.490358010204
 C3 0.485924 0.28213 0.6214  -0.172880510204
 C3 0.985933 0.282144 0.62143  -0.172880510204
 C4 0.020085 0.33145 0.68147  -0.226000510204
 C4 0.520093 0.331436 0.68146  -0.226000510204
 C5 0.019876 0.423759 0.67623  0.169249489796
 C5 0.519885 0.423745 0.67622  0.169249489796
 C5 0.454178 0.422759 0.56015  0.169249489796
 C5 0.954186 0.42277 0.56016  0.169249489796
 C4 0.451522 0.330223 0.56031  -0.226000510204
 C4 0.951531 0.330234 0.5603  -0.226000510204
 C1 0.364685 0.857287 0.40688  -0.490358010204
 C1 0.86469 0.857295 0.40688  -0.490358010204
 C2 0.343493 0.870649 0.31207  0.552269489796
 C2 0.8435 0.870652 0.3120  0.552269489796
 C3 0.282565 0.865492 0.29314  -0.172880510204
 C3 0.782571 0.865493 0.2931  -0.172880510204
 C2 0.257025 0.882192 0.20763  0.552269489796
 C2 0.757033 0.882191 0.20763  0.552269489796
 C1 0.191736 0.877291 0.19756  -0.490358010204
 C1 0.691744 0.877286 0.19756  -0.490358010204
 C3 0.235881 0.717868 0.37860  -0.172880510204
 C3 0.735887 0.717868 0.37859  -0.172880510204
 C4 0.270072 0.668612 0.31854  -0.226000510204
 C4 0.770079 0.668612 0.3185  -0.226000510204
 C5 0.269879 0.576303 0.3237  0.169249489796
 C5 0.769885 0.576303 0.32376  0.169249489796
 C5 0.204141 0.577194 0.43987  0.169249489796
 C5 0.704146 0.577194 0.43986  0.169249489796
 C4 0.201469 0.669727 0.43972  -0.226000510204
 C4 0.701475 0.669726 0.43972  -0.226000510204
 C1 0.239683 0.093088 0.35722  -0.490358010204
 C1 0.739691 0.093085 0.35723  -0.490358010204
 C2 0.21849 0.187914 0.37058  0.552269489796
 C2 0.718498 0.187912 0.37057  0.552269489796
 C3 0.157564 0.206865 0.36544  -0.172880510204
 C3 0.657572 0.206864 0.36544  -0.172880510204
 C2 0.132019 0.292388 0.38216  0.552269489796
 C2 0.632027 0.292388 0.38215  0.552269489796
 C1 0.066731 0.302463 0.37729  -0.490358010204
 C1 0.56674 0.302463 0.37727  -0.490358010204
 C3 0.110883 0.121404 0.21785  -0.172880510204
 C3 0.610891 0.121405 0.2178  -0.172880510204
 C4 0.145064 0.181478 0.16858  -0.226000510204
 C4 0.645073 0.181479 0.16858  -0.226000510204
 C5 0.144859 0.176259 0.07628  0.169249489796
 C5 0.644867 0.176262 0.07628  0.169249489796
 C5 0.079134 0.060134 0.07721  0.169249489796
 C5 0.57914 0.060139 0.0772  0.169249489796
 C4 0.076471 0.060272 0.16973  -0.226000510204
 C4 0.576479 0.060275 0.16973  -0.226000510204
 C1 0.489732 0.906943 0.64273  -0.490358010204
 C1 0.98974 0.906944 0.64273  -0.490358010204
 C2 0.468521 0.81211 0.62939  0.552269489796
 C2 0.968529 0.812113 0.62938  0.552269489796
 C3 0.407588 0.793144 0.63454  -0.172880510204
 C3 0.907596 0.793144 0.63454  -0.172880510204
 C2 0.382033 0.707611 0.61782  0.552269489796
 C2 0.882041 0.707611 0.61782  0.552269489796
 C1 0.316741 0.69752 0.62269  -0.490358010204
 C1 0.81675 0.697516 0.6227  -0.490358010204
 C3 0.360913 0.878594 0.78216  -0.172880510204
 C3 0.860922 0.878594 0.78217  -0.172880510204
 C4 0.395086 0.818544 0.83140  -0.226000510204
 C4 0.895095 0.818543 0.83141  -0.226000510204
 C5 0.394885 0.823776 0.92370  0.169249489796
 C5 0.894893 0.823773 0.92370  0.169249489796
 C5 0.329173 0.939864 0.92283  0.169249489796
 C5 0.829182 0.939863 0.92283  0.169249489796
 C4 0.32651 0.939713 0.83031  -0.226000510204
 C4 0.826519 0.939714 0.83031  -0.226000510204
 S1 0.389691 0.335332 0.11841  -0.00328551020408
 S1 0.8897 0.335331 0.11841  -0.00328551020408
 S1 0.139637 0.664727 0.8814  -0.00328551020408
 S1 0.639643 0.664742 0.88148  -0.00328551020408
 S1 0.264679 0.381587 0.83525  -0.00328551020408
 S1 0.764688 0.381586 0.83525  -0.00328551020408
 S1 0.01464 0.618495 0.1646  -0.00328551020408
 S1 0.514648 0.618498 0.16468  -0.00328551020408
 S1 0.485368 0.164668 0.6184  -0.00328551020408
 S1 0.985381 0.164683 0.6184  -0.00328551020408
 S1 0.235317 0.835328 0.38156  -0.00328551020408
 S1 0.735323 0.835328 0.38156  -0.00328551020408
 S1 0.110324 0.11843 0.33529  -0.00328551020408
 S1 0.610332 0.118429 0.33529  -0.00328551020408
 S1 0.360359 0.881558 0.66472  -0.00328551020408
 S1 0.860367 0.881558 0.66472  -0.00328551020408
 N1 0.386778 0.029889 0.11625  -0.349215510204
 N1 0.886787 0.029888 0.11625  -0.349215510204
 N1 0.13674 0.970166 0.88370  -0.349215510204
 N1 0.636741 0.970178 0.88369  -0.349215510204
 N1 0.261753 0.383766 0.52986  -0.349215510204
 N1 0.761762 0.383761 0.52985  -0.349215510204
 N1 0.011746 0.616283 0.47008  -0.349215510204
 N1 0.511754 0.616284 0.47008  -0.349215510204
 N1 0.488265 0.470113 0.61624  -0.349215510204
 N1 0.988275 0.470125 0.61625  -0.349215510204
 N1 0.23825 0.529891 0.38375  -0.349215510204
 N1 0.738262 0.529892 0.3837  -0.349215510204
 N1 0.113234 0.116261 0.02989  -0.349215510204
 N1 0.613244 0.116262 0.02989  -0.349215510204
 N1 0.363264 0.883757 0.97012  -0.349215510204
 N1 0.863274 0.883757 0.97012  -0.349215510204
 O1 0.242487 0.385735 0.24577  -0.527575510204
 O1 0.742495 0.38574 0.24576  -0.527575510204
 O1 0.339872 0.401984 0.36273  -0.527575510204
 O1 0.839881 0.401983 0.36273  -0.527575510204
 O1 0.492463 0.614295 0.75419  -0.527575510204
 O1 0.99247 0.614315 0.754  -0.527575510204
 O1 0.089862 0.598073 0.63719  -0.527575510204
 O1 0.58987 0.598078 0.63719  -0.527575510204
 O1 0.117474 0.254232 0.8857  -0.527575510204
 O1 0.617484 0.254239 0.88576  -0.527575510204
 O1 0.214861 0.137258 0.90193  -0.527575510204
 O1 0.714869 0.137261 0.90193  -0.527575510204
 O1 0.367475 0.745793 0.11428  -0.527575510204
 O1 0.867483 0.745792 0.1142  -0.527575510204
 O1 0.46488 0.862805 0.09803  -0.527575510204
 O1 0.964888 0.862803 0.09803  -0.527575510204
 O1 0.132535 0.114294 0.74576  -0.527575510204
 O1 0.632543 0.114314 0.74575  -0.527575510204
 O1 0.035127 0.098048 0.86276  -0.527575510204
 O1 0.535135 0.098034 0.86275  -0.527575510204
 O1 0.382527 0.885793 0.25421  -0.527575510204
 O1 0.882534 0.885796 0.25421  -0.527575510204
 O1 0.285143 0.901976 0.13725  -0.527575510204
 O1 0.785151 0.901977 0.13725  -0.527575510204
 O1 0.257521 0.245783 0.38571  -0.527575510204
 O1 0.757529 0.245781 0.38571  -0.527575510204
 O1 0.160134 0.36277 0.40196  -0.527575510204
 O1 0.660141 0.362768 0.40196  -0.527575510204
 O1 0.007534 0.754254 0.61424  -0.527575510204
 O1 0.507543 0.754251 0.61425  -0.527575510204
 O1 0.41014 0.637236 0.59803  -0.527575510204
 O1 0.910148 0.637236 0.5980  -0.527575510204
