#======================================================================

# CRYSTAL DATA

#----------------------------------------------------------------------

data_VESTA_phase_1


_pd_phase_name                         MOF
_cell_length_a                         13.97100
_cell_length_b                         15.66100
_cell_length_c                         19.60600
_cell_angle_alpha                      89.99200
_cell_angle_beta                       90.00500
_cell_angle_gamma                      90.01400
_symmetry_space_group_name_H-M         "P 1"
_symmetry_Int_Tables_number            1

loop_
_symmetry_equiv_pos_as_xyz
   "x, y, z"

loop_
   _atom_site_label
   _atom_site_fract_x
   _atom_site_fract_y
   _atom_site_fract_z
 _atom_site_charge
 Cd1 0.690892 0.860006 0.02850  0.900671586022
 Cd1 0.809666 0.140763 0.52817  0.900671586022
 Cd1 0.309215 0.360279 0.47142  0.900671586022
 Cd1 0.190685 0.639844 0.9715  0.900671586022
 H1 0.743301 0.964555 0.89026  0.371621586022
 H2 0.657772 0.91286 0.29604  0.0807219610215
 H1 0.554576 0.768629 0.36232  0.371621586022
 H2 0.763034 0.828571 0.88895  0.0807219610215
 H2 0.911525 0.786382 0.94209  0.0807219610215
 H2 0.061318 0.874456 0.09360  0.0807219610215
 H2 0.88993 0.951479 0.76557  0.0807219610215
 H2 0.971921 0.894413 0.66194  0.0807219610215
 H2 0.115294 0.942086 0.98719  0.0807219610215
 H2 0.821968 0.695333 0.89733  0.0807219610215
 H2 0.973724 0.604161 0.6788  0.0807219610215
 H2 0.002298 0.018278 0.07069  0.0807219610215
 H2 0.99404 0.058069 0.9862  0.0807219610215
 H2 0.839039 0.009172 0.9719  0.0807219610215
 H2 0.83549 0.995055 0.06154  0.0807219610215
 H2 0.706789 0.699546 0.37439  0.0807219610215
 H2 0.988965 0.954427 0.8908  0.0807219610215
 H2 0.04441 0.852869 0.8968  0.0807219610215
 H2 0.658036 0.940117 0.17042  0.0807219610215
 H2 0.811231 0.549769 0.10301  0.0807219610215
 H2 0.776499 0.622783 0.31259  0.0807219610215
 H2 0.923193 0.495668 0.76561  0.0807219610215
 H2 0.749041 0.690928 0.06503  0.0807219610215
 H2 0.896753 0.860739 0.10718  0.0807219610215
 H2 0.90338 0.769091 0.05387  0.0807219610215
 H2 0.828774 0.490147 0.98027  0.0807219610215
 H2 0.895344 0.588055 0.97258  0.0807219610215
 H2 0.768628 0.587276 0.95631  0.0807219610215
 H2 0.892415 0.417863 0.29238  0.0807219610215
 H2 0.913031 0.528218 0.31304  0.0807219610215
 H2 0.796689 0.481467 0.32580  0.0807219610215
 H2 0.76371 0.886247 0.38699  0.0807219610215
 H2 0.72466 0.753816 0.49549  0.0807219610215
 H2 0.714972 0.865713 0.49969  0.0807219610215
 H2 0.009502 0.849803 0.39499  0.0807219610215
 H2 0.918691 0.924587 0.37378  0.0807219610215
 H2 0.853775 0.667239 0.40639  0.0807219610215
 H2 0.973929 0.699841 0.39699  0.0807219610215
 H2 0.986071 0.7336 0.51461  0.0807219610215
 H2 0.875979 0.679458 0.5246  0.0807219610215
 H2 0.855746 0.825693 0.56932  0.0807219610215
 H2 0.990441 0.890306 0.50862  0.0807219610215
 H1 0.75747 0.036087 0.39046  0.371621586022
 H2 0.842454 0.087231 0.79587  0.0807219610215
 H1 0.945432 0.231084 0.86203  0.371621586022
 H2 0.737058 0.172198 0.38882  0.0807219610215
 H2 0.588585 0.213793 0.4418  0.0807219610215
 H2 0.439064 0.125757 0.59348  0.0807219610215
 H2 0.611463 0.048617 0.26528  0.0807219610215
 H2 0.529308 0.105228 0.16152  0.0807219610215
 H2 0.385072 0.058048 0.48711  0.0807219610215
 H2 0.676426 0.305104 0.397  0.0807219610215
 H2 0.525307 0.395444 0.178  0.0807219610215
 H2 0.498174 0.98212 0.57073  0.0807219610215
 H2 0.506365 0.942138 0.48637  0.0807219610215
 H2 0.6613 0.991155 0.47186  0.0807219610215
 H2 0.664995 0.005314 0.56145  0.0807219610215
 H2 0.793324 0.300554 0.87411  0.0807219610215
 H2 0.511314 0.045655 0.39073  0.0807219610215
 H2 0.455866 0.1472 0.39672  0.0807219610215
 H2 0.842291 0.059972 0.67023  0.0807219610215
 H2 0.689361 0.450328 0.6026  0.0807219610215
 H2 0.722993 0.377144 0.81226  0.0807219610215
 H2 0.57403 0.504159 0.26554  0.0807219610215
 H2 0.751654 0.309221 0.56475  0.0807219610215
 H2 0.603585 0.139699 0.60702  0.0807219610215
 H2 0.596828 0.231274 0.55361  0.0807219610215
 H2 0.666801 0.509846 0.48065  0.0807219610215
 H2 0.602088 0.410997 0.47273  0.0807219610215
 H2 0.728761 0.413764 0.45635  0.0807219610215
 H2 0.605411 0.581417 0.79156  0.0807219610215
 H2 0.585145 0.470838 0.81164  0.0807219610215
 H2 0.70089 0.518129 0.8257  0.0807219610215
 H2 0.736116 0.113929 0.88682  0.0807219610215
 H2 0.775491 0.246331 0.99527  0.0807219610215
 H2 0.785114 0.134427 0.99948  0.0807219610215
 H2 0.490427 0.150663 0.89497  0.0807219610215
 H2 0.581075 0.075785 0.87366  0.0807219610215
 H2 0.646454 0.333025 0.90632  0.0807219610215
 H2 0.526223 0.300611 0.8969  0.0807219610215
 H2 0.514131 0.26668 0.01455  0.0807219610215
 H2 0.624273 0.320745 0.02458  0.0807219610215
 H2 0.644462 0.174468 0.06918  0.0807219610215
 H2 0.509656 0.109944 0.00857  0.0807219610215
 H1 0.257587 0.464467 0.6096  0.371621586022
 H2 0.342179 0.412956 0.20379  0.0807219610215
 H1 0.445415 0.26869 0.13760  0.371621586022
 H2 0.236987 0.328441 0.61088  0.0807219610215
 H2 0.088296 0.287162 0.55776  0.0807219610215
 H2 0.938988 0.376472 0.40635  0.0807219610215
 H2 0.110222 0.451609 0.73433  0.0807219610215
 H2 0.028032 0.394499 0.83789  0.0807219610215
 H2 0.885358 0.443873 0.51289  0.0807219610215
 H2 0.177927 0.195548 0.60248  0.0807219610215
 H2 0.026087 0.104269 0.82092  0.0807219610215
 H2 0.998749 0.51987 0.42955  0.0807219610215
 H2 0.00733 0.559378 0.51405  0.0807219610215
 H2 0.162004 0.50971 0.52823  0.0807219610215
 H2 0.165418 0.495868 0.43860  0.0807219610215
 H2 0.293269 0.199463 0.12573  0.0807219610215
 H2 0.011689 0.455306 0.60935  0.0807219610215
 H2 0.955714 0.35399 0.60297  0.0807219610215
 H2 0.341976 0.440412 0.32939  0.0807219610215
 H2 0.188762 0.050141 0.39733  0.0807219610215
 H2 0.223519 0.122777 0.18765  0.0807219610215
 H2 0.076691 0.995793 0.73423  0.0807219610215
 H2 0.250929 0.191407 0.43511  0.0807219610215
 H2 0.103462 0.361893 0.3927  0.0807219610215
 H2 0.096172 0.270167 0.44595  0.0807219610215
 H2 0.171483 0.990291 0.51965  0.0807219610215
 H2 0.104848 0.088153 0.52723  0.0807219610215
 H2 0.231509 0.087489 0.5436  0.0807219610215
 H2 0.107629 0.917863 0.2080  0.0807219610215
 H2 0.087134 0.0 0.1872  0.0807219610215
 H2 0.203463 0.981409 0.17468  0.0807219610215
 H2 0.236133 0.386068 0.11289  0.0807219610215
 H2 0.275138 0.253465 0.00454  0.0807219610215
 H2 0.284857 0.365363 0.  0.0807219610215
 H2 0.990375 0.349298 0.10506  0.0807219610215
 H2 0.081117 0.424211 0.12622  0.0807219610215
 H2 0.146297 0.166937 0.09370  0.0807219610215
 H2 0.026111 0.199366 0.10319  0.0807219610215
 H2 0.013741 0.233125 0.98555  0.0807219610215
 H2 0.123832 0.17905 0.97546  0.0807219610215
 H2 0.143987 0.32527 0.93070  0.0807219610215
 H2 0.009357 0.38987 0.99141  0.0807219610215
 H1 0.24199 0.536057 0.10955  0.371621586022
 H2 0.157457 0.587174 0.70388  0.0807219610215
 H1 0.054495 0.73104 0.63784  0.371621586022
 H2 0.26288 0.672192 0.11103  0.0807219610215
 H2 0.411517 0.713309 0.05801  0.0807219610215
 H2 0.561246 0.625242 0.90678  0.0807219610215
 H2 0.38832 0.548511 0.23469  0.0807219610215
 H2 0.470651 0.60513 0.33838  0.0807219610215
 H2 0.614846 0.557427 0.01320  0.0807219610215
 H2 0.323607 0.804912 0.10244  0.0807219610215
 H2 0.474767 0.895341 0.32131  0.0807219610215
 H2 0.501765 0.481587 0.92943  0.0807219610215
 H2 0.493505 0.441536 0.01379  0.0807219610215
 H2 0.338641 0.4907 0.02836  0.0807219610215
 H2 0.334933 0.504613 0.93873  0.0807219610215
 H2 0.206572 0.800628 0.62585  0.0807219610215
 H2 0.488232 0.545062 0.10941  0.0807219610215
 H2 0.543939 0.646532 0.10352  0.0807219610215
 H2 0.157655 0.559648 0.82949  0.0807219610215
 H2 0.31062 0.949946 0.8975  0.0807219610215
 H2 0.276901 0.877155 0.68780  0.0807219610215
 H2 0.426004 0.004053 0.23425  0.0807219610215
 H2 0.248354 0.808704 0.93525  0.0807219610215
 H2 0.396746 0.638887 0.89298  0.0807219610215
 H2 0.403303 0.730618 0.94622  0.0807219610215
 H2 0.332936 0.009694 0.01919  0.0807219610215
 H2 0.397715 0.91088 0.02708  0.0807219610215
 H2 0.271079 0.913574 0.04359  0.0807219610215
 H2 0.394479 0.081428 0.70864  0.0807219610215
 H2 0.414701 0.97089 0.68845  0.0807219610215
 H2 0.29895 0.018172 0.67442  0.0807219610215
 H2 0.26384 0.614057 0.61302  0.0807219610215
 H2 0.224674 0.746685 0.50467  0.0807219610215
 H2 0.214883 0.634814 0.50036  0.0807219610215
 H2 0.50954 0.650919 0.60504  0.0807219610215
 H2 0.418883 0.575978 0.62630  0.0807219610215
 H2 0.35352 0.833213 0.59368  0.0807219610215
 H2 0.473743 0.800852 0.6031  0.0807219610215
 H2 0.485991 0.767016 0.48552  0.0807219610215
 H2 0.375872 0.821058 0.47544  0.0807219610215
 H2 0.355683 0.674825 0.43077  0.0807219610215
 H2 0.49042 0.610302 0.49143  0.0807219610215
 C1 0.679417 0.862344 0.26113  -0.193545288978
 C2 0.827836 0.865851 0.87633  0.174501586022
 C3 0.899146 0.855166 0.93616  0.0691365860215
 C4 0.705735 0.783302 0.28671  0.0283590860215
 C5 0.930531 0.712022 0.73996  0.200076586022
 C6 0.028214 0.85253 0.04583  -0.0891509139785
 C5 0.730808 0.739869 0.16757  0.200076586022
 C4 0.871998 0.828865 0.81181  0.0283590860215
 C4 0.886135 0.739147 0.80241  0.0283590860215
 C1 0.901711 0.88322 0.76034  -0.193545288978
 C7 0.947274 0.85089 0.70182  0.170161586022
 C6 0.039317 0.925328 0.99256  -0.0891509139785
 C1 0.858455 0.676292 0.8508  -0.193545288978
 C1 0.941884 0.623323 0.72724  -0.193545288978
 C8 0.980877 0.001699 0.0183  -0.227238413978
 C9 0.873868 0.977196 0.01478  0.0410015860215
 C2 0.697822 0.768282 0.3633  0.174501586022
 C10 0.875238 0.590669 0.8379  0.280216586022
 C4 0.735685 0.719599 0.23906  0.0283590860215
 C8 0.997135 0.897792 0.92358  -0.227238413978
 C7 0.679266 0.878137 0.19077  0.170161586022
 C1 0.789763 0.598259 0.13977  -0.193545288978
 C1 0.770759 0.638026 0.25876  -0.193545288978
 C1 0.914718 0.56383 0.77487  -0.193545288978
 C1 0.756506 0.676542 0.11918  -0.193545288978
 C10 0.799062 0.579067 0.210  0.280216586022
 C9 0.91948 0.837486 0.05688  0.0410015860215
 C11 0.08422 0.773477 0.02344  0.667666586022
 C12 0.835366 0.55032 0.95211  0.00761283602151
 C12 0.860702 0.481765 0.29325  0.00761283602151
 C3 0.773724 0.81946 0.40285  0.0691365860215
 C8 0.76076 0.813809 0.48123  -0.227238413978
 C9 0.934869 0.868303 0.40510  0.0410015860215
 C9 0.904469 0.718685 0.41871  0.0410015860215
 C8 0.911313 0.732016 0.49710  -0.227238413978
 C6 0.860752 0.816507 0.51400  -0.0891509139785
 C6 0.920845 0.889872 0.48209  -0.0891509139785
 C11 0.877184 0.977539 0.49685  0.667666586022
 C1 0.820779 0.13773 0.7609  -0.193545288978
 C2 0.672528 0.134535 0.37618  0.174501586022
 C3 0.601117 0.145036 0.43599  0.0691365860215
 C4 0.794326 0.216742 0.78650  0.0283590860215
 C5 0.568964 0.287807 0.2396  0.200076586022
 C6 0.472096 0.147716 0.54569  -0.0891509139785
 C5 0.769485 0.260208 0.66733  0.200076586022
 C4 0.628194 0.171286 0.31161  0.0283590860215
 C4 0.613282 0.260916 0.30224  0.0283590860215
 C1 0.599127 0.116799 0.26005  -0.193545288978
 C7 0.553482 0.148875 0.2014  0.170161586022
 C6 0.461027 0.074881 0.49248  -0.0891509139785
 C1 0.639989 0.323905 0.3508  -0.193545288978
 C1 0.556942 0.376441 0.22697  -0.193545288978
 C8 0.519524 0.998591 0.51831  -0.227238413978
 C9 0.626532 0.023126 0.51471  0.0410015860215
 C2 0.802211 0.231793 0.86310  0.174501586022
 C10 0.62224 0.409399 0.33805  0.280216586022
 C4 0.764346 0.280429 0.7388  0.0283590860215
 C8 0.503162 0.10232 0.42346  -0.227238413978
 C7 0.821032 0.12194 0.69057  0.170161586022
 C1 0.710648 0.401815 0.63941  -0.193545288978
 C1 0.72904 0.361947 0.75844  -0.193545288978
 C1 0.583099 0.436051 0.27477  -0.193545288978
 C1 0.74399 0.323552 0.61889  -0.193545288978
 C10 0.70093 0.420922 0.70981  0.280216586022
 C9 0.580819 0.162866 0.55670  0.0410015860215
 C11 0.41592 0.226679 0.52329  0.667666586022
 C12 0.661309 0.449719 0.45232  0.00761283602151
 C12 0.637557 0.517687 0.79257  0.00761283602151
 C3 0.726244 0.18073 0.90266  0.0691365860215
 C8 0.739327 0.18636 0.9810  -0.227238413978
 C9 0.565032 0.132065 0.90500  0.0410015860215
 C9 0.59567 0.281644 0.91863  0.0410015860215
 C8 0.588876 0.268236 0.9970  -0.227238413978
 C6 0.639385 0.183699 0.01387  -0.0891509139785
 C6 0.579189 0.110403 0.98197  -0.0891509139785
 C11 0.622917 0.022726 0.99662  0.667666586022
 C1 0.320583 0.362477 0.23878  -0.193545288978
 C2 0.172492 0.366045 0.62361  0.174501586022
 C3 0.101043 0.355887 0.56378  0.0691365860215
 C4 0.294275 0.283376 0.21330  0.0283590860215
 C5 0.069342 0.212155 0.75984  0.200076586022
 C6 0.971948 0.354258 0.45407  -0.0891509139785
 C5 0.269216 0.24014 0.33250  0.200076586022
 C4 0.128072 0.329028 0.68805  0.0283590860215
 C4 0.113787 0.239309 0.69741  0.0283590860215
 C1 0.098343 0.383352 0.73952  -0.193545288978
 C7 0.052674 0.351 0.79800  0.170161586022
 C6 0.961254 0.426863 0.507  -0.0891509139785
 C1 0.141433 0.176468 0.64899  -0.193545288978
 C1 0.057961 0.123449 0.77257  -0.193545288978
 C8 0.020111 0.50305 0.48190  -0.227238413978
 C9 0.126963 0.47805 0.48534  0.0410015860215
 C2 0.302168 0.268231 0.13671  0.174501586022
 C10 0.124676 0.090832 0.66185  0.280216586022
 C4 0.264347 0.219737 0.26104  0.0283590860215
 C8 0.003267 0.398857 0.5764  -0.227238413978
 C7 0.320752 0.378387 0.3091  0.170161586022
 C1 0.210236 0.098572 0.36050  -0.193545288978
 C1 0.229268 0.138113 0.24146  -0.193545288978
 C1 0.085159 0.063973 0.72496  -0.193545288978
 C1 0.243493 0.176906 0.38098  -0.193545288978
 C10 0.200952 0.079239 0.29011  0.280216586022
 C9 0.080559 0.338655 0.44302  0.0410015860215
 C11 0.915351 0.275562 0.47644  0.667666586022
 C12 0.164788 0.050465 0.54780  0.00761283602151
 C12 0.139391 0.981759 0.20717  0.00761283602151
 C3 0.22618 0.319239 0.09713  0.0691365860215
 C8 0.239071 0.313473 0.01875  -0.227238413978
 C9 0.064982 0.367892 0.09494  0.0410015860215
 C9 0.09551 0.218301 0.08140  0.0410015860215
 C8 0.088527 0.231598 0.  -0.227238413978
 C6 0.139042 0.316113 0.98603  -0.0891509139785
 C6 0.078959 0.389451 0.01793  -0.0891509139785
 C11 0.122682 0.47711 0.  0.667666586022
 C1 0.179124 0.637608 0.73888  -0.193545288978
 C2 0.327228 0.634384 0.12377  0.174501586022
 C3 0.3988 0.644583 0.06401  0.0691365860215
 C4 0.205599 0.716677 0.71341  0.0283590860215
 C5 0.431046 0.787691 0.26016  0.200076586022
 C6 0.528044 0.647165 0.95451  -0.0891509139785
 C5 0.230488 0.759903 0.83261  0.200076586022
 C4 0.371665 0.671158 0.18830  0.0283590860215
 C4 0.386687 0.760786 0.19762  0.0283590860215
 C1 0.400736 0.616689 0.23988  -0.193545288978
 C7 0.446468 0.64877 0.29843  0.170161586022
 C6 0.538922 0.574291 0.00774  -0.0891509139785
 C1 0.360005 0.823765 0.14903  -0.193545288978
 C1 0.443106 0.876328 0.2728  -0.193545288978
 C8 0.480411 0.498025 0.98185  -0.227238413978
 C9 0.373431 0.522545 0.9854  0.0410015860215
 C2 0.197718 0.731845 0.63682  0.174501586022
 C10 0.377758 0.909266 0.16177  0.280216586022
 C4 0.235582 0.780282 0.76115  0.0283590860215
 C8 0.496622 0.601738 0.07670  -0.227238413978
 C7 0.178913 0.621668 0.8092  0.170161586022
 C1 0.289323 0.901486 0.86067  -0.193545288978
 C1 0.270881 0.861852 0.74160  -0.193545288978
 C1 0.416926 0.935929 0.22504  -0.193545288978
 C1 0.255991 0.823165 0.88112  -0.193545288978
 C10 0.299019 0.92074 0.79029  0.280216586022
 C9 0.419355 0.662214 0.94329  0.0410015860215
 C11 0.584083 0.726249 0.97693  0.667666586022
 C12 0.338534 0.949575 0.0475  0.00761283602151
 C12 0.362322 0.017691 0.70760  0.00761283602151
 C3 0.273726 0.680892 0.59724  0.0691365860215
 C8 0.260734 0.686661 0.51887  -0.227238413978
 C9 0.434946 0.632287 0.5949  0.0410015860215
 C9 0.404328 0.781869 0.58138  0.0410015860215
 C8 0.411224 0.768532 0.50  -0.227238413978
 C6 0.360707 0.683997 0.48609  -0.0891509139785
 C6 0.420862 0.610678 0.51  -0.0891509139785
 C11 0.377206 0.522974 0.503  0.667666586022
 N1 0.702867 0.818955 0.14466  -0.389558413978
 N2 0.962353 0.768112 0.69145  -0.368408413978
 N3 0.86043 0.882967 0.0045  -0.284108413978
 N4 0.872813 0.79704 0.38303  -0.386068413978
 N1 0.797513 0.181151 0.64444  -0.389558413978
 N2 0.537794 0.231568 0.19108  -0.368408413978
 N3 0.639883 0.117358 0.50440  -0.284108413978
 N4 0.627159 0.203278 0.88291  -0.386068413978
 N1 0.29717 0.319269 0.35531  -0.389558413978
 N2 0.037533 0.268219 0.80835  -0.368408413978
 N3 0.13986 0.383733 0.49542  -0.284108413978
 N4 0.12713 0.296716 0.1170  -0.386068413978
 N1 0.202482 0.680779 0.85541  -0.389558413978
 N2 0.462223 0.731464 0.30877  -0.368408413978
 N3 0.360166 0.616799 0.99559  -0.284108413978
 N4 0.372794 0.703455 0.61705  -0.386068413978
 O1 0.802657 0.952737 0.8642  -0.557378413978
 O1 0.607646 0.796674 0.38886  -0.557378413978
 O2 0.854482 0.525922 0.88265  -0.257453413978
 O2 0.83724 0.500711 0.22371  -0.257453413978
 O3 0.175126 0.77444 0.03288  -0.604313413978
 O3 0.041601 0.711782 0.99438  -0.604313413978
 O3 0.850252 0.02628 0.44783  -0.604313413978
 O3 0.870385 0.0 0.55888  -0.604313413978
 O1 0.69835 0.047799 0.36415  -0.557378413978
 O1 0.892324 0.203315 0.88872  -0.557378413978
 O2 0.641636 0.47418 0.38295  -0.257453413978
 O2 0.66256 0.49923 0.72321  -0.257453413978
 O3 0.325011 0.225586 0.53271  -0.604313413978
 O3 0.458421 0.288474 0.49428  -0.604313413978
 O3 0.649955 0.974098 0.94761  -0.604313413978
 O3 0.629723 0.999301 0.05868  -0.604313413978
 O1 0.198412 0.452707 0.63592  -0.557378413978
 O1 0.392294 0.296697 0.11110  -0.557378413978
 O2 0.145502 0.026062 0.6172  -0.257453413978
 O2 0.162754 0.0 0.27671  -0.257453413978
 O3 0.824514 0.277069 0.46712  -0.604313413978
 O3 0.957757 0.21365 0.50543  -0.604313413978
 O3 0.149605 0.525866 0.05214  -0.604313413978
 O3 0.129592 0.500449 0.94111  -0.604313413978
 O1 0.301027 0.547759 0.13597  -0.557378413978
 O1 0.107631 0.703309 0.61117  -0.557378413978
 O2 0.358322 0.974065 0.11688  -0.257453413978
 O2 0.337398 0.999098 0.77696  -0.257453413978
 O3 0.675039 0.72523 0.96768  -0.604313413978
 O3 0.541465 0.788107 0.00571  -0.604313413978
 O3 0.350282 0.474235 0.5522  -0.604313413978
 O3 0.370377 0.49958 0.44124  -0.604313413978
