#======================================================================

# CRYSTAL DATA

#----------------------------------------------------------------------

data_VESTA_phase_1


_pd_phase_name                         MOF
_cell_length_a                         14.23300
_cell_length_b                         15.70000
_cell_length_c                         15.69600
_cell_angle_alpha                      87.16100
_cell_angle_beta                       76.97600
_cell_angle_gamma                      76.97900
_symmetry_space_group_name_H-M         "P 1"
_symmetry_Int_Tables_number            1

loop_
_symmetry_equiv_pos_as_xyz
   "x, y, z"

loop_
   _atom_site_label
   _atom_site_fract_x
   _atom_site_fract_y
   _atom_site_fract_z
 _atom_site_charge
 Zn1 0.061754 0.763171 0.73683  0.808632037037
 Zn1 0.563515 0.763144 0.73674  0.808632037037
 Zn1 0.312694 0.236946 0.26311  0.808632037037
 Zn1 0.810884 0.236877 0.26300  0.808632037037
 Zn1 0.069747 0.736908 0.23687  0.808632037037
 Zn1 0.568189 0.736892 0.23689  0.808632037037
 Zn1 0.054014 0.263122 0.76307  0.808632037037
 Zn1 0.55537 0.263111 0.76306  0.808632037037
 H1 0.284938 0.740189 0.15679  0.098189537037
 H1 0.783682 0.739601 0.15821  0.098189537037
 H1 0.392661 0.745953 0.00524  0.098189537037
 H1 0.892627 0.745707 0.00722  0.098189537037
 H1 0.315951 0.753584 0.87650  0.098189537037
 H1 0.8173 0.753641 0.87765  0.098189537037
 H1 0.038205 0.749904 0.05433  0.098189537037
 H1 0.538423 0.749736 0.0535  0.098189537037
 H1 0.231428 0.259868 0.84293  0.098189537037
 H1 0.732538 0.25898 0.84272  0.098189537037
 H1 0.266941 0.254147 0.9944  0.098189537037
 H1 0.768189 0.253221 0.99417  0.098189537037
 H1 0.130291 0.246322 0.12332  0.098189537037
 H1 0.631374 0.246371 0.12315  0.098189537037
 H1 0.439199 0.251364 0.94591  0.098189537037
 H1 0.938653 0.250303 0.94584  0.098189537037
 H1 0.137328 0.157265 0.260  0.098189537037
 H1 0.635871 0.155856 0.25984  0.098189537037
 H1 0.104403 0.005898 0.25427  0.098189537037
 H1 0.604694 0.003847 0.25414  0.098189537037
 H1 0.244793 0.876943 0.24637  0.098189537037
 H1 0.746111 0.875845 0.24640  0.098189537037
 H1 0.43497 0.054084 0.24981  0.098189537037
 H1 0.933907 0.055032 0.24995  0.098189537037
 H1 0.346145 0.841841 0.74019  0.098189537037
 H1 0.844554 0.842006 0.74069  0.098189537037
 H1 0.234325 0.992782 0.74595  0.098189537037
 H1 0.733074 0.993101 0.74610  0.098189537037
 H1 0.305966 0.122373 0.75312  0.098189537037
 H1 0.805004 0.122504 0.75296  0.098189537037
 H1 0.085845 0.946376 0.74785  0.098189537037
 H1 0.587077 0.946524 0.74773  0.098189537037
 H1 0.390968 0.657165 0.24117  0.098189537037
 H1 0.892729 0.657037 0.2396  0.098189537037
 H1 0.355413 0.505738 0.24679  0.098189537037
 H1 0.857073 0.505677 0.24513  0.098189537037
 H1 0.492298 0.376831 0.25341  0.098189537037
 H1 0.993577 0.376716 0.25313  0.098189537037
 H1 0.185278 0.553947 0.24982  0.098189537037
 H1 0.684501 0.554031 0.24817  0.098189537037
 H1 0.34014 0.343281 0.76046  0.098189537037
 H1 0.839321 0.342985 0.7598  0.098189537037
 H1 0.232388 0.494774 0.7543  0.098189537037
 H1 0.731413 0.49446 0.75417  0.098189537037
 H1 0.309141 0.623464 0.74641  0.098189537037
 H1 0.807904 0.623211 0.74653  0.098189537037
 H1 0.085872 0.445709 0.74995  0.098189537037
 H1 0.586876 0.445765 0.7503  0.098189537037
 H1 0.278867 0.759857 0.65821  0.098189537037
 H1 0.780558 0.759356 0.65664  0.098189537037
 H1 0.390683 0.754255 0.50718  0.098189537037
 H1 0.891043 0.753861 0.50505  0.098189537037
 H1 0.319091 0.747137 0.37758  0.098189537037
 H1 0.817915 0.746938 0.37630  0.098189537037
 H1 0.038013 0.752113 0.55346  0.098189537037
 H1 0.537973 0.752197 0.554  0.098189537037
 H1 0.487975 0.240298 0.34394  0.098189537037
 H1 0.986226 0.240227 0.34255  0.098189537037
 H1 0.019198 0.246037 0.49394  0.098189537037
 H1 0.519139 0.246142 0.4959  0.098189537037
 H1 0.377734 0.25381 0.62406  0.098189537037
 H1 0.878899 0.253785 0.62299  0.098189537037
 H1 0.190009 0.24991 0.44487  0.098189537037
 H1 0.688642 0.250337 0.44588  0.098189537037
 C1 0.255446 0.742917 0.09818  0.171329537037
 C1 0.754824 0.742527 0.09924  0.171329537037
 C2 0.31426 0.746668 0.01489  -0.057767962963
 C2 0.814292 0.746448 0.01629  -0.057767962963
 C2 0.27147 0.751688 0.94258  -0.057767962963
 C2 0.772275 0.751649 0.94349  -0.057767962963
 C3 0.170443 0.753637 0.95587  -0.199545462963
 C3 0.671326 0.753614 0.95605  -0.199545462963
 C1 0.116916 0.748752 0.04159  0.171329537037
 C1 0.617096 0.748585 0.04148  0.171329537037
 C4 0.118379 0.760102 0.88186  0.652282037037
 C4 0.619881 0.760166 0.88166  0.652282037037
 C1 0.17425 0.257109 0.90161  0.171329537037
 C1 0.675298 0.256651 0.90144  0.171329537037
 C2 0.19368 0.253332 0.98485  -0.057767962963
 C2 0.694804 0.252884 0.98464  -0.057767962963
 C2 0.117588 0.248269 0.05727  -0.057767962963
 C2 0.618616 0.248378 0.05712  -0.057767962963
 C3 0.024092 0.246355 0.04410  -0.199545462963
 C3 0.52492 0.247085 0.04403  -0.199545462963
 C1 0.010523 0.251324 0.95843  0.171329537037
 C1 0.51125 0.251982 0.95842  0.171329537037
 C4 0.439302 0.241186 0.11820  0.652282037037
 C4 0.938481 0.239858 0.11812  0.652282037037
 C1 0.195816 0.098536 0.25716  0.171329537037
 C1 0.694859 0.097525 0.2570  0.171329537037
 C2 0.178097 0.015383 0.25342  -0.057767962963
 C2 0.678108 0.014008 0.25336  -0.057767962963
 C2 0.256634 0.942944 0.2482  -0.057767962963
 C2 0.757246 0.942086 0.24827  -0.057767962963
 C3 0.351165 0.956 0.24619  -0.199545462963
 C3 0.851399 0.956008 0.24625  -0.199545462963
 C1 0.362476 0.041566 0.25103  0.171329537037
 C1 0.861705 0.041876 0.25113  0.171329537037
 C4 0.439819 0.881835 0.23973  0.652282037037
 C4 0.940906 0.882664 0.23980  0.652282037037
 C1 0.373736 0.900795 0.74256  0.171329537037
 C1 0.87233 0.900898 0.74286  0.171329537037
 C2 0.312376 0.98377 0.74637  -0.057767962963
 C2 0.811132 0.983923 0.74652  -0.057767962963
 C2 0.351984 0.056538 0.75103  -0.057767962963
 C2 0.850885 0.056625 0.75102  -0.057767962963
 C3 0.45214 0.043995 0.75231  -0.199545462963
 C3 0.951028 0.043966 0.75235  -0.199545462963
 C1 0.007567 0.958525 0.74736  0.171329537037
 C1 0.508812 0.958589 0.74724  0.171329537037
 C4 0.500549 0.118342 0.75851  0.652282037037
 C4 0.999475 0.11827 0.75849  0.652282037037
 C1 0.448279 0.598471 0.24333  0.171329537037
 C1 0.949823 0.598343 0.24250  0.171329537037
 C2 0.428814 0.515284 0.24703  -0.057767962963
 C2 0.93032 0.51516 0.24612  -0.057767962963
 C2 0.505043 0.442845 0.25143  -0.057767962963
 C2 0.0 0.442728 0.251  -0.057767962963
 C3 0.099735 0.45584 0.25345  -0.199545462963
 C3 0.598757 0.455944 0.25263  -0.199545462963
 C1 0.113389 0.541431 0.24862  0.171329537037
 C1 0.612411 0.541525 0.24770  0.171329537037
 C4 0.185248 0.381768 0.26006  0.652282037037
 C4 0.684365 0.3818 0.25860  0.652282037037
 C1 0.369619 0.401907 0.75753  0.171329537037
 C1 0.868721 0.401638 0.75711  0.171329537037
 C2 0.310797 0.485142 0.75364  -0.057767962963
 C2 0.809813 0.484842 0.75340  -0.057767962963
 C2 0.353614 0.557419 0.74843  -0.057767962963
 C2 0.852485 0.557184 0.74835  -0.057767962963
 C3 0.45464 0.544163 0.74647  -0.199545462963
 C3 0.953518 0.544008 0.74632  -0.199545462963
 C1 0.007148 0.458375 0.75116  0.171329537037
 C1 0.50816 0.458503 0.75148  0.171329537037
 C4 0.005385 0.618106 0.73985  0.652282037037
 C4 0.506723 0.618166 0.73989  0.652282037037
 C1 0.251305 0.75748 0.59922  0.171329537037
 C1 0.752269 0.757165 0.59802  0.171329537037
 C2 0.312653 0.753768 0.51624  -0.057767962963
 C2 0.812917 0.753462 0.51471  -0.057767962963
 C2 0.273082 0.749115 0.44343  -0.057767962963
 C2 0.77248 0.748942 0.44239  -0.057767962963
 C3 0.172966 0.747709 0.45597  -0.199545462963
 C3 0.672249 0.747651 0.45568  -0.199545462963
 C1 0.116258 0.752694 0.54140  0.171329537037
 C1 0.616286 0.752671 0.54139  0.171329537037
 C4 0.12461 0.741521 0.38160  0.652282037037
 C4 0.62326 0.741451 0.38170  0.652282037037
 C1 0.429003 0.243023 0.40230  0.171329537037
 C1 0.927776 0.243108 0.40132  0.171329537037
 C2 0.445737 0.246846 0.48584  -0.057767962963
 C2 0.94553 0.246845 0.4844  -0.057767962963
 C2 0.366601 0.25189 0.55781  -0.057767962963
 C2 0.867018 0.251929 0.55698  -0.057767962963
 C3 0.272472 0.253797 0.54389  -0.199545462963
 C3 0.77248 0.253957 0.54396  -0.199545462963
 C1 0.262198 0.248829 0.45800  0.171329537037
 C1 0.761144 0.249134 0.45837  0.171329537037
 C4 0.182904 0.2602 0.61719  0.652282037037
 C4 0.683849 0.260348 0.61816  0.652282037037
 N1 0.158041 0.743089 0.11150  -0.326817962963
 N1 0.657473 0.742754 0.11183  -0.326817962963
 N1 0.083479 0.256934 0.88842  -0.326817962963
 N1 0.584372 0.256973 0.88836  -0.326817962963
 N1 0.286764 0.111611 0.25675  -0.326817962963
 N1 0.785427 0.11141 0.25684  -0.326817962963
 N1 0.471128 0.888202 0.74219  -0.326817962963
 N1 0.969749 0.88821 0.74242  -0.326817962963
 N1 0.040523 0.611475 0.24292  -0.326817962963
 N1 0.539237 0.61157 0.24286  -0.326817962963
 N1 0.46703 0.388606 0.75729  -0.326817962963
 N1 0.966131 0.388431 0.75685  -0.326817962963
 N1 0.15394 0.757757 0.61180  -0.326817962963
 N1 0.654801 0.7576 0.61134  -0.326817962963
 N1 0.338452 0.243157 0.38844  -0.326817962963
 N1 0.83683 0.243439 0.38829  -0.326817962963
 O1 0.168847 0.770418 0.80399  -0.572555462963
 O1 0.670694 0.770404 0.80392  -0.572555462963
 O2 0.029227 0.755172 0.89696  -0.577560462963
 O2 0.530693 0.755343 0.89642  -0.577560462963
 O1 0.456686 0.229613 0.19585  -0.572555462963
 O1 0.955179 0.22966 0.19604  -0.572555462963
 O2 0.354792 0.247673 0.10340  -0.577560462963
 O2 0.854501 0.244641 0.10284  -0.577560462963
 O1 0.427845 0.803999 0.22954  -0.572555462963
 O1 0.930015 0.804393 0.22965  -0.572555462963
 O2 0.021962 0.898902 0.24459  -0.577560462963
 O2 0.52158 0.896762 0.24456  -0.577560462963
 O1 0.44448 0.195935 0.77031  -0.572555462963
 O1 0.943383 0.195904 0.77021  -0.572555462963
 O2 0.091269 0.103521 0.7521  -0.577560462963
 O2 0.592412 0.103579 0.75211  -0.577560462963
 O1 0.168404 0.303922 0.27032  -0.572555462963
 O1 0.666935 0.304179 0.27028  -0.572555462963
 O2 0.269274 0.39694 0.25531  -0.577560462963
 O2 0.768865 0.396597 0.25214  -0.577560462963
 O1 0.456321 0.695999 0.7295  -0.572555462963
 O1 0.954816 0.695915 0.72957  -0.572555462963
 O2 0.09454 0.60315 0.74476  -0.577560462963
 O2 0.595888 0.603069 0.74481  -0.577560462963
 O1 0.180675 0.72974 0.30396  -0.572555462963
 O1 0.679052 0.729641 0.30397  -0.572555462963
 O2 0.032754 0.747924 0.39633  -0.577560462963
 O2 0.5314 0.74783 0.39675  -0.577560462963
 O1 0.193678 0.270348 0.69551  -0.572555462963
 O1 0.695811 0.270508 0.69601  -0.572555462963
 O2 0.101894 0.255381 0.6008  -0.577560462963
 O2 0.602094 0.255474 0.60323  -0.577560462963
