#======================================================================

# CRYSTAL DATA

#----------------------------------------------------------------------

data_VESTA_phase_1


_pd_phase_name                         MOF
_cell_length_a                         15.55400
_cell_length_b                         14.51400
_cell_length_c                         15.02500
_cell_angle_alpha                      80.01000
_cell_angle_beta                       74.31800
_cell_angle_gamma                      77.46700
_symmetry_space_group_name_H-M         "P 1"
_symmetry_Int_Tables_number            1

loop_
_symmetry_equiv_pos_as_xyz
   "x, y, z"

loop_
   _atom_site_label
   _atom_site_fract_x
   _atom_site_fract_y
   _atom_site_fract_z
 _atom_site_charge
 Cu1 0.494201 0.919117 0.48652  0.836336078431
 Cu1 0.497289 0.479919 0.92528  0.836336078431
 Cu1 0.92754 0.483292 0.49451  0.836336078431
 Cu1 0.505303 0.078195 0.51424  0.836336078431
 Cu1 0.501439 0.517331 0.07713  0.836336078431
 Cu1 0.071499 0.51413 0.50943  0.836336078431
 H1 0.764087 0.760744 0.48532  0.11931996732
 H1 0.20905 0.950182 0.50236  0.11931996732
 H1 0.978697 0.177455 0.50583  0.11931996732
 H1 0.467163 0.754274 0.76468  0.11931996732
 H1 0.513042 0.17543 0.97401  0.11931996732
 H1 0.530693 0.954336 0.20294  0.11931996732
 H1 0.773639 0.483382 0.76854  0.11931996732
 H1 0.969384 0.500373 0.18201  0.11931996732
 H1 0.209652 0.499051 0.95656  0.11931996732
 H1 0.235495 0.236395 0.51702  0.11931996732
 H1 0.790219 0.047604 0.49784  0.11931996732
 H1 0.020457 0.820571 0.49678  0.11931996732
 H1 0.53217 0.243022 0.2358  0.11931996732
 H1 0.486659 0.821038 0.02668  0.11931996732
 H1 0.469055 0.042668 0.79821  0.11931996732
 H1 0.225156 0.514498 0.23530  0.11931996732
 H1 0.029349 0.497779 0.82178  0.11931996732
 H1 0.789104 0.498984 0.04725  0.11931996732
 C1 0.232793 0.089755 0.51006  -0.0666080882353
 C1 0.102848 0.217518 0.51182  -0.0666080882353
 C2 0.194323 0.185892 0.513  -0.109261143791
 C2 0.179627 0.025123 0.50560  -0.109261143791
 C3 0.330925 0.056162 0.50882  0.632231911765
 C2 0.049568 0.153138 0.5076  -0.109261143791
 C4 0.088113 0.056388 0.50488  -0.058397254902
 C3 0.93606 0.676293 0.49162  0.632231911765
 C1 0.524533 0.219261 0.10007  -0.0666080882353
 C1 0.532113 0.095406 0.22977  -0.0666080882353
 C2 0.530402 0.190759 0.19278  -0.109261143791
 C2 0.519397 0.153113 0.04522  -0.109261143791
 C3 0.519348 0.321989 0.06165  0.632231911765
 C2 0.529561 0.028652 0.17442  -0.109261143791
 C4 0.521443 0.057444 0.08328  -0.058397254902
 C3 0.470287 0.934416 0.67108  0.632231911765
 C1 0.092841 0.507312 0.21960  -0.0666080882353
 C1 0.228272 0.507209 0.0923  -0.0666080882353
 C2 0.185828 0.51067 0.18666  -0.109261143791
 C2 0.041529 0.502941 0.15721  -0.109261143791
 C3 0.052378 0.506614 0.32295  0.632231911765
 C2 0.177352 0.502201 0.03015  -0.109261143791
 C4 0.084094 0.50127 0.0615  -0.058397254902
 C3 0.670715 0.491169 0.94529  0.632231911765
 C1 0.766666 0.907673 0.49105  -0.0666080882353
 C1 0.896535 0.780045 0.49073  -0.0666080882353
 C2 0.805164 0.811462 0.48825  -0.109261143791
 C2 0.819683 0.972602 0.49521  -0.109261143791
 C3 0.668593 0.941021 0.49188  0.632231911765
 C2 0.94967 0.8447 0.49459  -0.109261143791
 C4 0.911095 0.941529 0.49644  -0.058397254902
 C3 0.063302 0.321205 0.51190  0.632231911765
 C1 0.474995 0.777583 0.90050  -0.0666080882353
 C1 0.46746 0.901781 0.77102  -0.0666080882353
 C2 0.469073 0.806364 0.80782  -0.109261143791
 C2 0.480293 0.84354 0.95549  -0.109261143791
 C3 0.479912 0.674831 0.93889  0.632231911765
 C2 0.470145 0.968307 0.82654  -0.109261143791
 C4 0.478301 0.939257 0.91764  -0.058397254902
 C3 0.529171 0.063084 0.32976  0.632231911765
 C1 0.905915 0.490629 0.78423  -0.0666080882353
 C1 0.770472 0.490793 0.91146  -0.0666080882353
 C2 0.812937 0.48731 0.81716  -0.109261143791
 C2 0.957207 0.495184 0.84658  -0.109261143791
 C3 0.946308 0.491138 0.68090  0.632231911765
 C2 0.821381 0.495856 0.97365  -0.109261143791
 C4 0.91463 0.496883 0.94222  -0.058397254902
 C3 0.328046 0.506652 0.05840  0.632231911765
 N1 0.041279 0.98431 0.50052  0.303136078431
 N1 0.514361 0.983564 0.03710  0.303136078431
 N1 0.042137 0.497344 0.98923  0.303136078431
 N1 0.957845 0.0 0.5006  0.303136078431
 N1 0.485421 0.0 0.96393  0.303136078431
 N1 0.956579 0.500843 0.  0.303136078431
 O1 0.374283 0.117157 0.51962  -0.560624754902
 O1 0.884316 0.62157 0.48505  -0.560624754902
 O1 0.017778 0.650546 0.4999  -0.560624754902
 O1 0.363583 0.969351 0.49600  -0.560624754902
 O1 0.518383 0.379346 0.11773  -0.560624754902
 O1 0.468323 0.873515 0.62012  -0.560624754902
 O1 0.477846 0.0216 0.64427  -0.560624754902
 O1 0.514899 0.344304 0.9767  -0.560624754902
 O1 0.104524 0.519514 0.37094  -0.560624754902
 O1 0.630095 0.475657 0.88736  -0.560624754902
 O1 0.634016 0.507904 0.029  -0.560624754902
 O1 0.971041 0.491968 0.35550  -0.560624754902
 O1 0.625272 0.879825 0.48140  -0.560624754902
 O1 0.114969 0.375694 0.51911  -0.560624754902
 O1 0.981607 0.347158 0.50352  -0.560624754902
 O1 0.635938 0.027963 0.50412  -0.560624754902
 O1 0.48006 0.61751 0.88310  -0.560624754902
 O1 0.530392 0.1243 0.38074  -0.560624754902
 O1 0.522262 0.975743 0.35654  -0.560624754902
 O1 0.484934 0.652483 0.02365  -0.560624754902
 O1 0.894395 0.477325 0.63310  -0.560624754902
 O1 0.368653 0.523161 0.11589  -0.560624754902
 O1 0.364756 0.488784 0.97473  -0.560624754902
 O1 0.027451 0.506357 0.64825  -0.560624754902
