#======================================================================

# CRYSTAL DATA

#----------------------------------------------------------------------

data_VESTA_phase_1


_pd_phase_name                         MOF
_cell_length_a                         14.51000
_cell_length_b                         19.40800
_cell_length_c                         26.34300
_cell_angle_alpha                      90.00000
_cell_angle_beta                       90.00100
_cell_angle_gamma                      90.00200
_symmetry_space_group_name_H-M         "P 1"
_symmetry_Int_Tables_number            1

loop_
_symmetry_equiv_pos_as_xyz
   "x, y, z"

loop_
   _atom_site_label
   _atom_site_fract_x
   _atom_site_fract_y
   _atom_site_fract_z
 _atom_site_charge
 Ba1 0.191828 0.692489 0.99860  1.6195304
 Ba1 0.691836 0.692484 0.99860  1.6195304
 Ba1 0.308157 0.307538 0.49861  1.6195304
 Ba1 0.808161 0.307509 0.49860  1.6195304
 Ba1 0.441833 0.807545 0.9986  1.6195304
 Ba1 0.941845 0.807548 0.99860  1.6195304
 Ba1 0.058147 0.19248 0.49860  1.6195304
 Ba1 0.558157 0.192485 0.49861  1.6195304
 H1 0.061691 0.124656 0.03384  0.101452066667
 H1 0.561721 0.124653 0.03384  0.101452066667
 H1 0.068682 0.233673 0.98467  0.101452066667
 H1 0.568693 0.233672 0.98467  0.101452066667
 H1 0.477355 0.318163 0.94699  0.101452066667
 H1 0.977369 0.318166 0.94699  0.101452066667
 H1 0.132456 0.416556 0.75519  0.101452066667
 H1 0.632466 0.416562 0.75519  0.101452066667
 H1 0.035028 0.208816 0.73267  0.101452066667
 H1 0.535043 0.208824 0.73266  0.101452066667
 H1 0.015848 0.420207 0.80423  0.101452066667
 H1 0.515855 0.420209 0.80423  0.101452066667
 H1 0.183704 0.420548 0.66549  0.101452066667
 H1 0.683728 0.420563 0.66550  0.101452066667
 H1 0.070566 0.20304 0.81722  0.101452066667
 H1 0.570575 0.203042 0.81722  0.101452066667
 H1 0.090302 0.212955 0.64393  0.101452066667
 H1 0.590322 0.212973 0.6439  0.101452066667
 H2 0.03841 0.949761 0.05963  0.4500404
 H2 0.538482 0.949742 0.05962  0.4500404
 H1 0.45994 0.128598 0.85382  0.101452066667
 H1 0.959955 0.128599 0.85382  0.101452066667
 H1 0.392944 0.479456 0.83601  0.101452066667
 H1 0.892961 0.479457 0.83601  0.101452066667
 H1 0.042273 0.424922 0.97144  0.101452066667
 H1 0.542285 0.424922 0.9714  0.101452066667
 H1 0.36497 0.59665 0.87129  0.101452066667
 H1 0.86499 0.596652 0.87128  0.101452066667
 H1 0.451488 0.019928 0.9037  0.101452066667
 H1 0.95149 0.019931 0.90374  0.101452066667
 H1 0.018846 0.543051 0.00480  0.101452066667
 H1 0.518854 0.543049 0.00481  0.101452066667
 H1 0.438341 0.875358 0.5338  0.101452066667
 H1 0.938416 0.875354 0.53385  0.101452066667
 H1 0.431303 0.766354 0.48467  0.101452066667
 H1 0.931309 0.766359 0.48467  0.101452066667
 H1 0.022622 0.681862 0.44  0.101452066667
 H1 0.522645 0.681866 0.44700  0.101452066667
 H1 0.367536 0.58346 0.255  0.101452066667
 H1 0.867543 0.583465 0.25519  0.101452066667
 H1 0.46496 0.7912 0.23267  0.101452066667
 H1 0.964969 0.791205 0.23267  0.101452066667
 H1 0.48415 0.579812 0.30424  0.101452066667
 H1 0.984153 0.579816 0.30423  0.101452066667
 H1 0.316283 0.579464 0.16550  0.101452066667
 H1 0.816297 0.579471 0.16549  0.101452066667
 H1 0.429417 0.796978 0.31722  0.101452066667
 H1 0.929422 0.796981 0.31722  0.101452066667
 H1 0.409687 0.787055 0.14393  0.101452066667
 H1 0.9097 0.787064 0.14393  0.101452066667
 H2 0.461683 0.050231 0.55965  0.4500404
 H2 0.961965 0.050169 0.55971  0.4500404
 H1 0.040017 0.871422 0.35381  0.101452066667
 H1 0.540043 0.871424 0.35382  0.101452066667
 H1 0.107032 0.520568 0.33601  0.101452066667
 H1 0.607058 0.520567 0.33602  0.101452066667
 H1 0.457729 0.575108 0.4714  0.101452066667
 H1 0.957744 0.575109 0.47145  0.101452066667
 H1 0.135001 0.403372 0.3712  0.101452066667
 H1 0.635035 0.403376 0.37130  0.101452066667
 H1 0.048552 0.980084 0.40374  0.101452066667
 H1 0.548533 0.980091 0.40375  0.101452066667
 H1 0.481172 0.456971 0.50482  0.101452066667
 H1 0.981175 0.456967 0.50481  0.101452066667
 H1 0.311609 0.375348 0.03385  0.101452066667
 H1 0.811725 0.375356 0.03384  0.101452066667
 H1 0.318686 0.26636 0.9846  0.101452066667
 H1 0.818698 0.266354 0.98467  0.101452066667
 H1 0.227358 0.181861 0.94699  0.101452066667
 H1 0.727366 0.181857 0.94699  0.101452066667
 H1 0.382464 0.083466 0.75519  0.101452066667
 H1 0.882473 0.083465 0.75520  0.101452066667
 H1 0.285034 0.291198 0.73266  0.101452066667
 H1 0.785047 0.291198 0.73266  0.101452066667
 H1 0.265856 0.079812 0.80423  0.101452066667
 H1 0.765867 0.079813 0.80423  0.101452066667
 H1 0.433713 0.079469 0.66549  0.101452066667
 H1 0.933726 0.079465 0.66550  0.101452066667
 H1 0.320574 0.296982 0.81722  0.101452066667
 H1 0.820577 0.296984 0.81722  0.101452066667
 H1 0.340306 0.287055 0.6439  0.101452066667
 H1 0.840323 0.28705 0.64392  0.101452066667
 H2 0.288113 0.550185 0.05969  0.4500404
 H2 0.788489 0.550278 0.0596  0.4500404
 H1 0.209955 0.371422 0.8538  0.101452066667
 H1 0.70994 0.371421 0.85382  0.101452066667
 H1 0.142945 0.020564 0.83601  0.101452066667
 H1 0.642956 0.020561 0.83601  0.101452066667
 H1 0.292295 0.075103 0.97144  0.101452066667
 H1 0.792305 0.075101 0.97144  0.101452066667
 H1 0.11497 0.903378 0.87129  0.101452066667
 H1 0.614981 0.903376 0.87129  0.101452066667
 H1 0.201432 0.480084 0.90374  0.101452066667
 H1 0.701485 0.480091 0.90374  0.101452066667
 H1 0.268864 0.956967 0.00480  0.101452066667
 H1 0.768874 0.956965 0.00480  0.101452066667
 H1 0.188283 0.624657 0.53384  0.101452066667
 H1 0.688621 0.624657 0.53387  0.101452066667
 H1 0.181296 0.733667 0.48467  0.101452066667
 H1 0.68129 0.733625 0.48466  0.101452066667
 H1 0.272632 0.818164 0.44700  0.101452066667
 H1 0.77263 0.818149 0.44  0.101452066667
 H1 0.117524 0.916553 0.25519  0.101452066667
 H1 0.617535 0.916555 0.25519  0.101452066667
 H1 0.214956 0.708819 0.23267  0.101452066667
 H1 0.714966 0.708821 0.23267  0.101452066667
 H1 0.234132 0.920209 0.30423  0.101452066667
 H1 0.734146 0.920207 0.30423  0.101452066667
 H1 0.066279 0.920548 0.16549  0.101452066667
 H1 0.566292 0.920548 0.16549  0.101452066667
 H1 0.17942 0.703038 0.31722  0.101452066667
 H1 0.679408 0.70304 0.31721  0.101452066667
 H1 0.159686 0.712963 0.14393  0.101452066667
 H1 0.659698 0.712961 0.14393  0.101452066667
 H2 0.211517 0.449737 0.55962  0.4500404
 H2 0.712926 0.449994 0.55988  0.4500404
 H1 0.290058 0.628603 0.35382  0.101452066667
 H1 0.78998 0.6286 0.35378  0.101452066667
 H1 0.357039 0.979461 0.33602  0.101452066667
 H1 0.857053 0.979451 0.33602  0.101452066667
 H1 0.207706 0.924918 0.47145  0.101452066667
 H1 0.707713 0.924911 0.47145  0.101452066667
 H1 0.385014 0.096647 0.37129  0.101452066667
 H1 0.88503 0.096636 0.37129  0.101452066667
 H1 0.298517 0.519933 0.40375  0.101452066667
 H1 0.798668 0.519951 0.40372  0.101452066667
 H1 0.231146 0.043047 0.50481  0.101452066667
 H1 0.731156 0.04304 0.50481  0.101452066667
 C1 0.046764 0.311524 0.80411  -0.0189873777778
 C1 0.546771 0.311527 0.80411  -0.0189873777778
 C2 0.038796 0.125909 0.99447  -0.0986466
 C2 0.538822 0.125906 0.99446  -0.0986466
 C2 0.04224 0.18698 0.96680  -0.0986466
 C2 0.542255 0.186979 0.96680  -0.0986466
 C1 0.078937 0.312464 0.75079  -0.0189873777778
 C1 0.578952 0.31247 0.75079  -0.0189873777778
 C1 0.138551 0.317523 0.64857  -0.0189873777778
 C1 0.63858 0.31754 0.64857  -0.0189873777778
 C2 0.997855 0.316371 0.9072  -0.0986466
 C2 0.497862 0.31637 0.90728  -0.0986466
 C2 0.120998 0.372056 0.73072  -0.0986466
 C2 0.621008 0.372064 0.73073  -0.0986466
 C2 0.068644 0.255241 0.71862  -0.0986466
 C2 0.568656 0.255252 0.71861  -0.0986466
 C2 0.017911 0.373245 0.82683  -0.0986466
 C2 0.517917 0.373246 0.82683  -0.0986466
 C1 0.494742 0.376867 0.87832  -0.0189873777778
 C1 0.994755 0.376867 0.87832  -0.0189873777778
 C2 0.150131 0.374657 0.680  -0.0986466
 C2 0.650148 0.37467 0.68050  -0.0986466
 C2 0.046529 0.251331 0.83365  -0.0986466
 C2 0.546537 0.251332 0.83365  -0.0986466
 C1 0.020769 0.252999 0.88509  -0.0189873777778
 C1 0.520779 0.252999 0.88509  -0.0189873777778
 C1 0.015985 0.188818 0.91532  -0.0189873777778
 C1 0.515997 0.188817 0.91532  -0.0189873777778
 C2 0.098029 0.257764 0.66839  -0.0986466
 C2 0.598044 0.257782 0.66839  -0.0986466
 C3 0.173905 0.319019 0.59525  0.7346754
 C3 0.673969 0.319036 0.59525  0.7346754
 C4 0.002475 0.998299 0.99889  0.6976404
 C4 0.502517 0.998291 0.99888  0.6976404
 C1 0.006637 0.065062 0.97166  -0.0189873777778
 C1 0.506665 0.065058 0.97166  -0.0189873777778
 C1 0.471206 0.444261 0.90082  -0.0189873777778
 C1 0.971223 0.444263 0.90081  -0.0189873777778
 C2 0.48346 0.127657 0.89307  -0.0986466
 C2 0.983469 0.127658 0.89307  -0.0986466
 C2 0.420803 0.493383 0.87306  -0.0986466
 C2 0.920825 0.493386 0.87306  -0.0986466
 C2 0.003001 0.462258 0.94939  -0.0986466
 C2 0.503004 0.462256 0.94939  -0.0986466
 C2 0.404821 0.558846 0.89261  -0.0986466
 C2 0.904844 0.55885 0.89260  -0.0986466
 C2 0.477979 0.066982 0.92083  -0.0986466
 C2 0.977981 0.066984 0.92083  -0.0986466
 C2 0.990273 0.528553 0.96811  -0.0986466
 C2 0.49027 0.52855 0.9681  -0.0986466
 C1 0.442048 0.577719 0.93966  -0.0189873777778
 C1 0.942071 0.577723 0.93966  -0.0189873777778
 C3 0.435917 0.650623 0.95764  0.7346754
 C3 0.935932 0.650625 0.95764  0.7346754
 C1 0.453227 0.688493 0.3041  -0.0189873777778
 C1 0.95323 0.688497 0.30411  -0.0189873777778
 C2 0.461217 0.874113 0.49447  -0.0986466
 C2 0.96128 0.874108 0.49447  -0.0986466
 C2 0.457753 0.813045 0.46680  -0.0986466
 C2 0.957774 0.813045 0.46680  -0.0986466
 C1 0.421049 0.687552 0.25079  -0.0189873777778
 C1 0.921057 0.687557 0.25079  -0.0189873777778
 C1 0.361436 0.682487 0.14858  -0.0189873777778
 C1 0.861452 0.682496 0.14857  -0.0189873777778
 C2 0.502136 0.683657 0.40728  -0.0986466
 C2 0.0 0.683655 0.40728  -0.0986466
 C2 0.378996 0.627958 0.23073  -0.0986466
 C2 0.879002 0.627964 0.2307  -0.0986466
 C2 0.431349 0.744772 0.21862  -0.0986466
 C2 0.931356 0.744779 0.21862  -0.0986466
 C2 0.482084 0.626775 0.32684  -0.0986466
 C2 0.982086 0.626778 0.32683  -0.0986466
 C1 0.005241 0.623158 0.37832  -0.0189873777778
 C1 0.505261 0.623158 0.37833  -0.0189873777778
 C2 0.349864 0.625354 0.18050  -0.0986466
 C2 0.849874 0.625361 0.18049  -0.0986466
 C2 0.453457 0.748689 0.33366  -0.0986466
 C2 0.95346 0.748691 0.33365  -0.0986466
 C1 0.479212 0.747025 0.38510  -0.0189873777778
 C1 0.979216 0.747025 0.38509  -0.0189873777778
 C1 0.483995 0.811208 0.41532  -0.0189873777778
 C1 0.984006 0.811208 0.41532  -0.0189873777778
 C2 0.401967 0.742245 0.168  -0.0986466
 C2 0.901976 0.742254 0.16839  -0.0986466
 C3 0.326071 0.680986 0.09525  0.7346754
 C3 0.826102 0.680998 0.09525  0.7346754
 C4 0.497567 0.001716 0.49890  0.6976404
 C4 0.997726 0.001691 0.49891  0.6976404
 C1 0.493387 0.934957 0.47167  -0.0189873777778
 C1 0.993472 0.934946 0.47167  -0.0189873777778
 C1 0.028772 0.555763 0.40082  -0.0189873777778
 C1 0.528807 0.555768 0.40083  -0.0189873777778
 C2 0.016527 0.872364 0.39306  -0.0986466
 C2 0.516537 0.872366 0.39307  -0.0986466
 C2 0.079171 0.506641 0.37306  -0.0986466
 C2 0.579211 0.506645 0.37308  -0.0986466
 C2 0.497023 0.537777 0.44941  -0.0986466
 C2 0.997008 0.537769 0.44939  -0.0986466
 C2 0.095152 0.441176 0.39260  -0.0986466
 C2 0.595196 0.441183 0.39262  -0.0986466
 C2 0.02206 0.933033 0.42083  -0.0986466
 C2 0.52204 0.933038 0.42083  -0.0986466
 C2 0.509764 0.471484 0.46813  -0.0986466
 C2 0.0 0.471473 0.46811  -0.0986466
 C1 0.057926 0.422302 0.43966  -0.0189873777778
 C1 0.557977 0.422312 0.43968  -0.0189873777778
 C3 0.064061 0.3494 0.45764  0.7346754
 C3 0.564084 0.349402 0.45765  0.7346754
 C1 0.296771 0.188496 0.80411  -0.0189873777778
 C1 0.796778 0.188497 0.80411  -0.0189873777778
 C2 0.28873 0.37411 0.99447  -0.0986466
 C2 0.788824 0.374119 0.99446  -0.0986466
 C2 0.292225 0.313046 0.96680  -0.0986466
 C2 0.792259 0.313046 0.96680  -0.0986466
 C1 0.328947 0.187554 0.75079  -0.0189873777778
 C1 0.828958 0.187555 0.75079  -0.0189873777778
 C1 0.388558 0.18249 0.64857  -0.0189873777778
 C1 0.888574 0.182485 0.64857  -0.0189873777778
 C2 0.247865 0.183654 0.90727  -0.0986466
 C2 0.747872 0.183652 0.90728  -0.0986466
 C2 0.371004 0.127962 0.7307  -0.0986466
 C2 0.871014 0.127961 0.73073  -0.0986466
 C2 0.318648 0.244773 0.71861  -0.0986466
 C2 0.818661 0.244771 0.71861  -0.0986466
 C2 0.267919 0.126776 0.82683  -0.0986466
 C2 0.767928 0.126776 0.82683  -0.0986466
 C1 0.244745 0.123156 0.87832  -0.0189873777778
 C1 0.744754 0.123155 0.87832  -0.0189873777778
 C2 0.400135 0.125359 0.68050  -0.0986466
 C2 0.900147 0.125355 0.68050  -0.0986466
 C2 0.296538 0.248692 0.83365  -0.0986466
 C2 0.796542 0.248692 0.83365  -0.0986466
 C1 0.27078 0.247026 0.88509  -0.0189873777778
 C1 0.770784 0.247025 0.88509  -0.0189873777778
 C1 0.265986 0.311207 0.91531  -0.0189873777778
 C1 0.765999 0.311206 0.91532  -0.0189873777778
 C2 0.348031 0.242247 0.66839  -0.0986466
 C2 0.848046 0.242243 0.66839  -0.0986466
 C3 0.423916 0.180991 0.59525  0.7346754
 C3 0.923942 0.180982 0.59525  0.7346754
 C4 0.252317 0.501707 0.99891  0.6976404
 C4 0.752524 0.501743 0.99888  0.6976404
 C1 0.256547 0.434949 0.97166  -0.0189873777778
 C1 0.756666 0.434965 0.97166  -0.0189873777778
 C1 0.221213 0.055761 0.90082  -0.0189873777778
 C1 0.721225 0.055758 0.9008  -0.0189873777778
 C2 0.233449 0.372363 0.89306  -0.0986466
 C2 0.73346 0.372364 0.89307  -0.0986466
 C2 0.17081 0.006636 0.87306  -0.0986466
 C2 0.670822 0.006633 0.87306  -0.0986466
 C2 0.253018 0.037766 0.94939  -0.0986466
 C2 0.753029 0.037763 0.94939  -0.0986466
 C2 0.154825 0.941183 0.89260  -0.0986466
 C2 0.654836 0.94118 0.89260  -0.0986466
 C2 0.227924 0.433033 0.92083  -0.0986466
 C2 0.727979 0.433039 0.92083  -0.0986466
 C2 0.240283 0.971482 0.96811  -0.0986466
 C2 0.740295 0.971479 0.96811  -0.0986466
 C1 0.192057 0.922311 0.93966  -0.0189873777778
 C1 0.692069 0.922308 0.93966  -0.0189873777778
 C3 0.18592 0.849409 0.95764  0.7346754
 C3 0.685929 0.849406 0.95764  0.7346754
 C1 0.20322 0.811525 0.30411  -0.0189873777778
 C1 0.703221 0.811525 0.30411  -0.0189873777778
 C2 0.211174 0.625903 0.49446  -0.0986466
 C2 0.711454 0.625909 0.49448  -0.0986466
 C2 0.207737 0.686976 0.46680  -0.0986466
 C2 0.707806 0.686955 0.46680  -0.0986466
 C1 0.171041 0.812464 0.25079  -0.0189873777778
 C1 0.67105 0.812466 0.25079  -0.0189873777778
 C1 0.111436 0.817527 0.14857  -0.0189873777778
 C1 0.611449 0.817526 0.14857  -0.0189873777778
 C2 0.252126 0.81637 0.40728  -0.0986466
 C2 0.752121 0.816359 0.40728  -0.0986466
 C2 0.128987 0.872056 0.23073  -0.0986466
 C2 0.628997 0.872058 0.23072  -0.0986466
 C2 0.181343 0.755245 0.21862  -0.0986466
 C2 0.681353 0.755245 0.21862  -0.0986466
 C2 0.23207 0.873246 0.32683  -0.0986466
 C2 0.732077 0.873243 0.3268  -0.0986466
 C1 0.255245 0.876867 0.37832  -0.0189873777778
 C1 0.75525 0.876859 0.3783  -0.0189873777778
 C2 0.099859 0.87466 0.18050  -0.0986466
 C2 0.599871 0.87466 0.18049  -0.0986466
 C2 0.203455 0.75133 0.33365  -0.0986466
 C2 0.703444 0.751329 0.33365  -0.0986466
 C1 0.229211 0.752997 0.385  -0.0189873777778
 C1 0.729196 0.75299 0.38509  -0.0189873777778
 C1 0.233995 0.688815 0.41532  -0.0189873777778
 C1 0.734003 0.688803 0.41531  -0.0189873777778
 C2 0.151964 0.757771 0.16839  -0.0986466
 C2 0.651975 0.75777 0.16839  -0.0986466
 C3 0.076083 0.819026 0.09525  0.7346754
 C3 0.5761 0.819022 0.09525  0.7346754
 C4 0.247476 0.498281 0.49888  0.6976404
 C4 0.74826 0.498376 0.4989  0.6976404
 C1 0.243336 0.565058 0.47166  -0.0189873777778
 C1 0.743727 0.565091 0.47168  -0.0189873777778
 C1 0.278774 0.944264 0.40082  -0.0189873777778
 C1 0.778789 0.944253 0.40082  -0.0189873777778
 C2 0.266538 0.627659 0.39307  -0.0986466
 C2 0.76654 0.627655 0.39304  -0.0986466
 C2 0.329178 0.993387 0.3730  -0.0986466
 C2 0.829194 0.993376 0.37307  -0.0986466
 C2 0.246981 0.962257 0.449  -0.0986466
 C2 0.746995 0.962247 0.44940  -0.0986466
 C2 0.345164 0.05884 0.39261  -0.0986466
 C2 0.845182 0.058829 0.39261  -0.0986466
 C2 0.272022 0.566984 0.42083  -0.0986466
 C2 0.772174 0.566997 0.42082  -0.0986466
 C2 0.259714 0.028541 0.4681  -0.0986466
 C2 0.759732 0.028531 0.46812  -0.0986466
 C1 0.307934 0.077713 0.43966  -0.0189873777778
 C1 0.807952 0.077701 0.43967  -0.0189873777778
 C3 0.314067 0.150616 0.45764  0.7346754
 C3 0.814075 0.150606 0.45764  0.7346754
 O1 0.363493 0.685939 0.94888  -0.7424496
 O1 0.863504 0.685937 0.94888  -0.7424496
 O1 0.00667 0.675091 0.9804  -0.7424496
 O1 0.506681 0.675089 0.98045  -0.7424496
 O2 0.464827 0.946907 0.98010  -0.6639246
 O2 0.964832 0.946908 0.98010  -0.6639246
 O2 0.221734 0.371331 0.58078  -0.6639246
 O2 0.721883 0.371308 0.58081  -0.6639246
 O1 0.16036 0.267109 0.56668  -0.7424496
 O1 0.660375 0.267138 0.56668  -0.7424496
 O3 0.042043 0.997985 0.04468  -0.5525596
 O3 0.542129 0.997965 0.04467  -0.5525596
 O1 0.136489 0.314088 0.44888  -0.7424496
 O1 0.636495 0.314076 0.44888  -0.7424496
 O1 0.493309 0.324941 0.48045  -0.7424496
 O1 0.99332 0.324934 0.48045  -0.7424496
 O2 0.03517 0.05313 0.48008  -0.6639246
 O2 0.535174 0.053121 0.48009  -0.6639246
 O2 0.278206 0.628688 0.08080  -0.6639246
 O2 0.778268 0.628688 0.08078  -0.6639246
 O1 0.339629 0.732891 0.06668  -0.7424496
 O1 0.839644 0.73291 0.06668  -0.7424496
 O3 0.458085 0.002002 0.54471  -0.5525596
 O3 0.958488 0.001923 0.54479  -0.5525596
 O1 0.11349 0.814094 0.94888  -0.7424496
 O1 0.613498 0.814093 0.94888  -0.7424496
 O1 0.25668 0.824945 0.98045  -0.7424496
 O1 0.756689 0.824941 0.98045  -0.7424496
 O2 0.214808 0.553135 0.98008  -0.6639246
 O2 0.714831 0.553124 0.98010  -0.6639246
 O2 0.471759 0.128687 0.58079  -0.6639246
 O2 0.971804 0.128685 0.58080  -0.6639246
 O1 0.410366 0.232899 0.56668  -0.7424496
 O1 0.910383 0.232885 0.56668  -0.7424496
 O3 0.29163 0.501945 0.04477  -0.5525596
 O3 0.792137 0.502055 0.0446  -0.5525596
 O1 0.386494 0.185932 0.44888  -0.7424496
 O1 0.886499 0.185926 0.44888  -0.7424496
 O1 0.243304 0.175081 0.48045  -0.7424496
 O1 0.743306 0.175068 0.48045  -0.7424496
 O2 0.285165 0.446898 0.48010  -0.6639246
 O2 0.7852 0.446821 0.48000  -0.6639246
 O2 0.028242 0.871331 0.08079  -0.6639246
 O2 0.528265 0.871329 0.08078  -0.6639246
 O1 0.089627 0.767116 0.06668  -0.7424496
 O1 0.58964 0.76711 0.06668  -0.7424496
 O3 0.207873 0.497961 0.5446  -0.5525596
 O3 0.709963 0.498315 0.54507  -0.5525596
