#======================================================================

# CRYSTAL DATA

#----------------------------------------------------------------------

data_VESTA_phase_1


_pd_phase_name                         MOF
_cell_length_a                         27.92000
_cell_length_b                         14.17900
_cell_length_c                         14.88000
_cell_angle_alpha                      65.27900
_cell_angle_beta                       62.00700
_cell_angle_gamma                      60.49300
_symmetry_space_group_name_H-M         "P 1"
_symmetry_Int_Tables_number            1

loop_
_symmetry_equiv_pos_as_xyz
   "x, y, z"

loop_
   _atom_site_label
   _atom_site_fract_x
   _atom_site_fract_y
   _atom_site_fract_z
 _atom_site_charge
 Ca1 0.269221 0.976168 0.36924  1.55786553922
 Ca1 0.769223 0.97617 0.36924  1.55786553922
 Ca1 0.441994 0.523807 0.13068  1.55786553922
 Ca1 0.941996 0.523808 0.13068  1.55786553922
 Ca1 0.230863 0.023789 0.63069  1.55786553922
 Ca1 0.730867 0.023792 0.63069  1.55786553922
 Ca1 0.058088 0.476162 0.86924  1.55786553922
 Ca1 0.558091 0.476162 0.86924  1.55786553922
 Ca2 0.393004 0.749995 0.24989  1.60465803922
 Ca2 0.893006 0.749996 0.24989  1.60465803922
 Ca2 0.107078 0.24997 0.75004  1.60465803922
 Ca2 0.607081 0.249971 0.75004  1.60465803922
 H1 0.359489 0.198087 0.24368  0.101108872549
 H1 0.859494 0.198084 0.24368  0.101108872549
 H1 0.410651 0.331441 0.14995  0.101108872549
 H1 0.910656 0.331438 0.14996  0.101108872549
 H1 0.063065 0.080909 0.99762  0.101108872549
 H1 0.563068 0.080908 0.99762  0.101108872549
 H1 0.011368 0.946293 0.09706  0.101108872549
 H1 0.51137 0.946292 0.09706  0.101108872549
 H1 0.341011 0.861524 0.04042  0.101108872549
 H1 0.841015 0.861532 0.04042  0.101108872549
 H1 0.167396 0.103768 0.13225  0.101108872549
 H1 0.6674 0.103772 0.13225  0.101108872549
 H1 0.080462 0.301874 0.25627  0.101108872549
 H1 0.580464 0.301873 0.25627  0.101108872549
 H1 0.151387 0.168509 0.35007  0.101108872549
 H1 0.65139 0.168509 0.35007  0.101108872549
 H1 0.102241 0.41903 0.50244  0.101108872549
 H1 0.602244 0.419033 0.50244  0.101108872549
 H1 0.033036 0.553666 0.40286  0.101108872549
 H1 0.533039 0.553667 0.40286  0.101108872549
 H1 0.292042 0.638325 0.45958  0.101108872549
 H1 0.792046 0.638322 0.45959  0.101108872549
 H1 0.285412 0.396399 0.36757  0.101108872549
 H1 0.785415 0.396398 0.36758  0.101108872549
 H1 0.140591 0.801873 0.7562  0.101108872549
 H1 0.640598 0.801867 0.7562  0.101108872549
 H1 0.089426 0.668526 0.84997  0.101108872549
 H1 0.589432 0.66852 0.84998  0.101108872549
 H1 0.437023 0.919056 0.00232  0.101108872549
 H1 0.937024 0.919055 0.00233  0.101108872549
 H1 0.488726 0.053663 0.90288  0.101108872549
 H1 0.988727 0.053663 0.90289  0.101108872549
 H1 0.159069 0.138426 0.95951  0.101108872549
 H1 0.659073 0.138431 0.95951  0.101108872549
 H1 0.332683 0.896181 0.86768  0.101108872549
 H1 0.832688 0.896191 0.86768  0.101108872549
 H1 0.4196 0.698073 0.74370  0.101108872549
 H1 0.919602 0.698071 0.74370  0.101108872549
 H1 0.348677 0.831437 0.649  0.101108872549
 H1 0.848679 0.831437 0.64990  0.101108872549
 H1 0.397835 0.58092 0.49750  0.101108872549
 H1 0.897837 0.580922 0.49750  0.101108872549
 H1 0.467035 0.446282 0.59710  0.101108872549
 H1 0.967036 0.446283 0.59710  0.101108872549
 H1 0.208034 0.361657 0.5403  0.101108872549
 H1 0.708037 0.361656 0.54034  0.101108872549
 H1 0.214664 0.603583 0.6323  0.101108872549
 H1 0.714669 0.603579 0.63235  0.101108872549
 C1 0.398865 0.988065 0.22915  0.745038039216
 C1 0.898868 0.988065 0.22915  0.745038039216
 C2 0.432198 0.064835 0.17523  -0.134501960784
 C2 0.932202 0.064834 0.17524  -0.134501960784
 C3 0.404278 0.173222 0.19048  -0.0524407107843
 C3 0.904282 0.17322 0.19049  -0.0524407107843
 C3 0.433126 0.247566 0.13752  -0.0524407107843
 C3 0.93313 0.247564 0.13752  -0.0524407107843
 C2 0.490337 0.215046 0.06679  -0.134501960784
 C2 0.99034 0.215045 0.06679  -0.134501960784
 C4 0.019547 0.296994 0.  0.762958039216
 C4 0.519549 0.296995 0.  0.762958039216
 C3 0.018733 0.106008 0.05244  -0.0524407107843
 C3 0.518735 0.106008 0.05244  -0.0524407107843
 C3 0.989995 0.031069 0.10734  -0.0524407107843
 C3 0.489996 0.031069 0.1073  -0.0524407107843
 C4 0.258777 0.963328 0.19922  0.762958039216
 C4 0.758781 0.963333 0.19922  0.762958039216
 C2 0.25448 0.980717 0.09664  -0.134501960784
 C2 0.754485 0.980724 0.09664  -0.134501960784
 C3 0.301309 0.921851 0.02230  -0.0524407107843
 C3 0.801313 0.921859 0.022  -0.0524407107843
 C3 0.203256 0.058887 0.07358  -0.0524407107843
 C3 0.70326 0.058893 0.07357  -0.0524407107843
 C1 0.007535 0.511931 0.27074  0.745038039216
 C1 0.507537 0.511929 0.27074  0.745038039216
 C2 0.052266 0.435153 0.32469  -0.134501960784
 C2 0.552268 0.435153 0.32469  -0.134501960784
 C3 0.086179 0.326747 0.30948  -0.0524407107843
 C3 0.586181 0.326746 0.3094  -0.0524407107843
 C3 0.125692 0.252386 0.36250  -0.0524407107843
 C3 0.625694 0.252386 0.36250  -0.0524407107843
 C2 0.131233 0.28489 0.4332  -0.134501960784
 C2 0.631235 0.284891 0.4332  -0.134501960784
 C4 0.171154 0.202953 0.49383  0.762958039216
 C4 0.671156 0.202955 0.49383  0.762958039216
 C3 0.097908 0.393938 0.44759  -0.0524407107843
 C3 0.59791 0.39394 0.44759  -0.0524407107843
 C3 0.059186 0.468905 0.39262  -0.0524407107843
 C3 0.559188 0.468906 0.39262  -0.0524407107843
 C4 0.340096 0.536702 0.30067  0.762958039216
 C4 0.840099 0.5367 0.3006  0.762958039216
 C2 0.293197 0.519279 0.4032  -0.134501960784
 C2 0.7932 0.519277 0.40328  -0.134501960784
 C3 0.273431 0.578042 0.47767  -0.0524407107843
 C3 0.773435 0.578039 0.47768  -0.0524407107843
 C3 0.269494 0.441199 0.42630  -0.0524407107843
 C3 0.769498 0.441198 0.42630  -0.0524407107843
 C1 0.10123 0.011877 0.77079  0.745038039216
 C1 0.601235 0.011874 0.77079  0.745038039216
 C2 0.06789 0.93512 0.82470  -0.134501960784
 C2 0.567894 0.935117 0.8247  -0.134501960784
 C3 0.095805 0.826737 0.80945  -0.0524407107843
 C3 0.59581 0.826733 0.80945  -0.0524407107843
 C3 0.066954 0.752398 0.86241  -0.0524407107843
 C3 0.566959 0.752394 0.86242  -0.0524407107843
 C2 0.009745 0.78492 0.9331  -0.134501960784
 C2 0.50975 0.784918 0.93315  -0.134501960784
 C4 0.480537 0.702971 0.99371  0.762958039216
 C4 0.980537 0.702972 0.99371  0.762958039216
 C3 0.481355 0.893954 0.94750  -0.0524407107843
 C3 0.981356 0.893955 0.94750  -0.0524407107843
 C3 0.510097 0.968888 0.89261  -0.0524407107843
 C3 0.0 0.968889 0.89261  -0.0524407107843
 C4 0.241305 0.036628 0.80071  0.762958039216
 C4 0.741309 0.036635 0.8007  0.762958039216
 C2 0.2456 0.019234 0.90329  -0.134501960784
 C2 0.745604 0.019241 0.90329  -0.134501960784
 C3 0.198771 0.078099 0.9776  -0.0524407107843
 C3 0.698775 0.078105 0.97763  -0.0524407107843
 C3 0.296823 0.941062 0.92636  -0.0524407107843
 C3 0.796828 0.941071 0.92635  -0.0524407107843
 C1 0.492538 0.488029 0.72921  0.745038039216
 C1 0.992539 0.488027 0.72921  0.745038039216
 C2 0.447801 0.564796 0.67527  -0.134501960784
 C2 0.947802 0.564796 0.67527  -0.134501960784
 C3 0.413885 0.6732 0.69048  -0.0524407107843
 C3 0.913887 0.6732 0.69048  -0.0524407107843
 C3 0.374373 0.747561 0.63746  -0.0524407107843
 C3 0.874375 0.747561 0.63746  -0.0524407107843
 C2 0.368837 0.715058 0.56669  -0.134501960784
 C2 0.86884 0.715059 0.56669  -0.134501960784
 C4 0.328923 0.796997 0.5061  0.762958039216
 C4 0.828925 0.796999 0.5061  0.762958039216
 C3 0.402164 0.60601 0.55236  -0.0524407107843
 C3 0.902166 0.606011 0.55236  -0.0524407107843
 C3 0.440883 0.531043 0.60734  -0.0524407107843
 C3 0.940885 0.531043 0.60734  -0.0524407107843
 C4 0.159983 0.463274 0.69925  0.762958039216
 C4 0.659987 0.463272 0.69925  0.762958039216
 C2 0.206879 0.480702 0.59664  -0.134501960784
 C2 0.706883 0.4807 0.59665  -0.134501960784
 C3 0.226644 0.421941 0.52224  -0.0524407107843
 C3 0.726648 0.421939 0.52225  -0.0524407107843
 C3 0.230581 0.558783 0.57362  -0.0524407107843
 C3 0.730586 0.55878 0.5736  -0.0524407107843
 O1 0.346429 0.026368 0.2897  -0.711948627451
 O1 0.846432 0.026368 0.28978  -0.711948627451
 O1 0.42361 0.892184 0.21075  -0.711948627451
 O1 0.923612 0.892184 0.21075  -0.711948627451
 O2 0.064991 0.279873 0.92450  -0.794601960784
 O2 0.564992 0.279874 0.92450  -0.794601960784
 O2 0.498679 0.387544 0.03494  -0.794601960784
 O2 0.998682 0.387543 0.03494  -0.794601960784
 O2 0.306052 0.892911 0.22026  -0.794601960784
 O2 0.806055 0.892914 0.22026  -0.794601960784
 O1 0.216102 0.020876 0.26341  -0.711948627451
 O1 0.716105 0.020882 0.26341  -0.711948627451
 O1 0.004486 0.473591 0.21028  -0.711948627451
 O1 0.504487 0.473588 0.21028  -0.711948627451
 O1 0.475212 0.607907 0.2889  -0.711948627451
 O1 0.975214 0.607908 0.28897  -0.711948627451
 O2 0.167125 0.220052 0.57558  -0.794601960784
 O2 0.667128 0.220054 0.57558  -0.794601960784
 O2 0.209983 0.112466 0.46504  -0.794601960784
 O2 0.709985 0.112467 0.46504  -0.794601960784
 O2 0.362754 0.606958 0.27971  -0.794601960784
 O2 0.862757 0.606957 0.27971  -0.794601960784
 O1 0.358211 0.479343 0.23641  -0.711948627451
 O1 0.858214 0.479341 0.23641  -0.711948627451
 O1 0.153662 0.973569 0.7101  -0.711948627451
 O1 0.653668 0.973566 0.71016  -0.711948627451
 O1 0.076493 0.107752 0.78919  -0.711948627451
 O1 0.576497 0.107751 0.78919  -0.711948627451
 O2 0.435088 0.720095 0.07543  -0.794601960784
 O2 0.935089 0.720095 0.07543  -0.794601960784
 O2 0.001407 0.612422 0.96499  -0.794601960784
 O2 0.501411 0.61242 0.96499  -0.794601960784
 O2 0.194032 0.10705 0.77966  -0.794601960784
 O2 0.694035 0.107053 0.77966  -0.794601960784
 O1 0.283981 0.979081 0.73652  -0.711948627451
 O1 0.783986 0.979089 0.73652  -0.711948627451
 O1 0.495602 0.526394 0.78963  -0.711948627451
 O1 0.995602 0.526391 0.78964  -0.711948627451
 O1 0.02485 0.392038 0.71100  -0.711948627451
 O1 0.524853 0.392039 0.71100  -0.711948627451
 O2 0.332959 0.779901 0.42435  -0.794601960784
 O2 0.832961 0.779903 0.42435  -0.794601960784
 O2 0.290091 0.887484 0.534  -0.794601960784
 O2 0.790094 0.887486 0.53490  -0.794601960784
 O2 0.137325 0.393018 0.72022  -0.794601960784
 O2 0.637328 0.393018 0.72022  -0.794601960784
 O1 0.141872 0.520627 0.76352  -0.711948627451
 O1 0.641876 0.520624 0.76352  -0.711948627451
