#======================================================================

# CRYSTAL DATA

#----------------------------------------------------------------------

data_VESTA_phase_1


_pd_phase_name                         MOF
_cell_length_a                         15.49400
_cell_length_b                         15.52000
_cell_length_c                         15.51100
_cell_angle_alpha                      74.37500
_cell_angle_beta                       74.60100
_cell_angle_gamma                      74.55100
_symmetry_space_group_name_H-M         "P 1"
_symmetry_Int_Tables_number            1

loop_
_symmetry_equiv_pos_as_xyz
   "x, y, z"

loop_
   _atom_site_label
   _atom_site_fract_x
   _atom_site_fract_y
   _atom_site_fract_z
 _atom_site_charge
 Cu1 0.573679 0.008347 0.00832  0.910704705882
 Cu1 0.008493 0.573548 0.00813  0.910704705882
 Cu1 0.008761 0.008113 0.57352  0.910704705882
 Cu1 0.991294 0.426478 0.99175  0.910704705882
 Cu1 0.426281 0.991728 0.99144  0.910704705882
 Cu1 0.991406 0.991924 0.42635  0.910704705882
 H1 0.527846 0.991042 0.29704  0.121288039216
 H1 0.297206 0.526997 0.99163  0.121288039216
 H1 0.991437 0.29726 0.52786  0.121288039216
 H1 0.008814 0.472299 0.7025  0.121288039216
 H1 0.471973 0.702965 0.00876  0.121288039216
 H1 0.702742 0.00852 0.47277  0.121288039216
 H1 0.472295 0.00894 0.70262  0.121288039216
 H1 0.702501 0.47305 0.00827  0.121288039216
 H1 0.008593 0.70285 0.47199  0.121288039216
 H1 0.99095 0.527818 0.29727  0.121288039216
 H1 0.52781 0.29716 0.99116  0.121288039216
 H1 0.297508 0.991538 0.52700  0.121288039216
 H1 0.264946 0.976935 0.26465  0.121288039216
 H1 0.264964 0.264705 0.97702  0.121288039216
 H1 0.976639 0.265344 0.26540  0.121288039216
 H1 0.023359 0.734683 0.73448  0.121288039216
 H1 0.734914 0.735341 0.02269  0.121288039216
 H1 0.735082 0.023225 0.73517  0.121288039216
 C1 0.400626 0.983104 0.27134  -0.065728627451
 C2 0.456363 0.988254 0.32661  -0.0319919607843
 C3 0.438878 0.984359 0.17189  0.681934705882
 C1 0.271522 0.400108 0.98347  -0.065728627451
 C2 0.326885 0.455687 0.98862  -0.0319919607843
 C3 0.171939 0.438397 0.98477  0.681934705882
 C1 0.98319 0.271741 0.40086  -0.065728627451
 C2 0.988344 0.326964 0.45641  -0.0319919607843
 C3 0.984665 0.172158 0.43912  0.681934705882
 C1 0.016956 0.599238 0.72810  -0.065728627451
 C2 0.011753 0.543729 0.67286  -0.0319919607843
 C3 0.015483 0.560982 0.82774  0.681934705882
 C1 0.599223 0.728643 0.01661  -0.065728627451
 C2 0.54349 0.673387 0.01151  -0.0319919607843
 C3 0.560955 0.82805 0.01544  0.681934705882
 C1 0.728472 0.01677 0.5997  -0.065728627451
 C2 0.673113 0.01155 0.54410  -0.0319919607843
 C3 0.828029 0.01546 0.56142  0.681934705882
 C1 0.599448 0.016963 0.72841  -0.065728627451
 C2 0.543776 0.01177 0.67309  -0.0319919607843
 C3 0.561144 0.015694 0.82786  0.681934705882
 C1 0.728278 0.59993 0.01634  -0.065728627451
 C2 0.672865 0.544373 0.01124  -0.0319919607843
 C3 0.827855 0.561619 0.01506  0.681934705882
 C1 0.016835 0.72832 0.59901  -0.065728627451
 C2 0.011651 0.673131 0.5434  -0.0319919607843
 C3 0.015455 0.827886 0.56076  0.681934705882
 C1 0.982923 0.400827 0.27177  -0.065728627451
 C2 0.988091 0.456371 0.32699  -0.0319919607843
 C3 0.984345 0.439068 0.17214  0.681934705882
 C1 0.400623 0.271431 0.98320  -0.065728627451
 C2 0.4563 0.326713 0.9883  -0.0319919607843
 C3 0.438946 0.172025 0.98436  0.681934705882
 C1 0.271667 0.983325 0.40010  -0.065728627451
 C2 0.327085 0.988513 0.4556  -0.0319919607843
 C3 0.172122 0.984613 0.4384  0.681934705882
 C4 0.476232 0.997035 0.47567  -0.0864852941176
 C2 0.308309 0.980244 0.30795  -0.0319919607843
 C1 0.42022 0.990851 0.41958  -0.065728627451
 C4 0.476006 0.475831 0.99706  -0.0864852941176
 C2 0.308271 0.308012 0.98034  -0.0319919607843
 C1 0.420068 0.419658 0.99095  -0.065728627451
 C4 0.996911 0.476059 0.47600  -0.0864852941176
 C2 0.979989 0.308582 0.3086  -0.0319919607843
 C1 0.99069 0.420081 0.42011  -0.065728627451
 C4 0.002956 0.524083 0.5238  -0.0864852941176
 C2 0.01998 0.691466 0.69126  -0.0319919607843
 C1 0.009189 0.580038 0.57974  -0.065728627451
 C4 0.5237 0.524279 0.00288  -0.0864852941176
 C2 0.691576 0.692039 0.0194  -0.0319919607843
 C1 0.579674 0.580429 0.0089  -0.065728627451
 C4 0.524017 0.002979 0.52400  -0.0864852941176
 C2 0.691765 0.019872 0.69184  -0.0319919607843
 C1 0.57998 0.009182 0.58013  -0.065728627451
 O1 0.521966 0.993155 0.14109  -0.564697794118
 O1 0.384932 0.978005 0.12528  -0.564697794118
 O1 0.141228 0.521341 0.99357  -0.564697794118
 O1 0.125155 0.384663 0.97846  -0.564697794118
 O1 0.994001 0.14101 0.52205  -0.564697794118
 O1 0.97801 0.125805 0.38527  -0.564697794118
 O1 0.006381 0.478034 0.85880  -0.564697794118
 O1 0.022035 0.614781 0.87419  -0.564697794118
 O1 0.477872 0.858956 0.00656  -0.564697794118
 O1 0.614926 0.874537 0.02189  -0.564697794118
 O1 0.858671 0.006734 0.47842  -0.564697794118
 O1 0.874864 0.021696 0.61520  -0.564697794118
 O1 0.478063 0.006871 0.8586  -0.564697794118
 O1 0.615061 0.022056 0.87450  -0.564697794118
 O1 0.858563 0.478676 0.00626  -0.564697794118
 O1 0.87464 0.615342 0.02140  -0.564697794118
 O1 0.006277 0.859025 0.47778  -0.564697794118
 O1 0.022038 0.874233 0.61465  -0.564697794118
 O1 0.993368 0.522038 0.1410  -0.564697794118
 O1 0.977868 0.385226 0.12570  -0.564697794118
 O1 0.522037 0.141136 0.9932  -0.564697794118
 O1 0.384996 0.12551 0.97792  -0.564697794118
 O1 0.141507 0.993284 0.52145  -0.564697794118
 O1 0.125269 0.978392 0.38466  -0.564697794118
