#======================================================================

# CRYSTAL DATA

#----------------------------------------------------------------------

data_VESTA_phase_1


_pd_phase_name                         MOF
_cell_length_a                         13.14400
_cell_length_b                         13.01300
_cell_length_c                         23.51100
_cell_angle_alpha                      90.00000
_cell_angle_beta                       90.00000
_cell_angle_gamma                      90.00000
_symmetry_space_group_name_H-M         "P 1"
_symmetry_Int_Tables_number            1

loop_
_symmetry_equiv_pos_as_xyz
   "x, y, z"

loop_
   _atom_site_label
   _atom_site_fract_x
   _atom_site_fract_y
   _atom_site_fract_z
 _atom_site_charge
 Zn1 0.596688 0.0 0.  1.17532836364
 Zn1 0.40331 0.0 0.  1.17532836364
 Zn1 1e-06 0.598418 0.49999  1.17532836364
 Zn1 1e-06 0.401619 0.49999  1.17532836364
 Si1 0.500001 0.500013 0.74845  0.882298363636
 Si1 0.5 0.50001 0.25153  0.882298363636
 H1 0.664355 0.626493 0.80189  0.0935158636364
 H1 0.663278 0.766321 0.87364  0.0935158636364
 H1 0.335646 0.373533 0.80189  0.0935158636364
 H1 0.336723 0.233705 0.87364  0.0935158636364
 H1 0.374267 0.666016 0.30462  0.0935158636364
 H1 0.233685 0.664919 0.37506  0.0935158636364
 H1 0.625734 0.334005 0.30462  0.0935158636364
 H1 0.766316 0.335104 0.37506  0.0935158636364
 H1 0.335646 0.62649 0.19810  0.0935158636364
 H1 0.336723 0.766318 0.12634  0.0935158636364
 H1 0.664354 0.37353 0.19810  0.0935158636364
 H1 0.663277 0.233702 0.12634  0.0935158636364
 H1 0.625734 0.666018 0.69536  0.0935158636364
 H1 0.766316 0.664921 0.62492  0.0935158636364
 H1 0.374267 0.334008 0.69536  0.0935158636364
 H1 0.233685 0.335107 0.62492  0.0935158636364
 H1 0.335647 0.373532 0.19809  0.0935158636364
 H1 0.336725 0.233703 0.12634  0.0935158636364
 H1 0.664353 0.626489 0.19809  0.0935158636364
 H1 0.663275 0.766317 0.12634  0.0935158636364
 H1 0.625721 0.334009 0.69537  0.0935158636364
 H1 0.766288 0.335093 0.62492  0.0935158636364
 H1 0.374281 0.666018 0.69537  0.0935158636364
 H1 0.233715 0.664934 0.62492  0.0935158636364
 H1 0.664354 0.373534 0.80189  0.0935158636364
 H1 0.663275 0.233706 0.87364  0.0935158636364
 H1 0.335648 0.626492 0.80189  0.0935158636364
 H1 0.336726 0.76632 0.87364  0.0935158636364
 H1 0.374279 0.334006 0.3046  0.0935158636364
 H1 0.233713 0.335092 0.3750  0.0935158636364
 H1 0.62572 0.666015 0.30461  0.0935158636364
 H1 0.766286 0.664931 0.37506  0.0935158636364
 C1 0.591811 0.656699 0.81706  -0.0368072613636
 C1 0.592111 0.735155 0.85736  -0.0368072613636
 C1 0.40819 0.343327 0.81706  -0.0368072613636
 C1 0.40789 0.264871 0.85736  -0.0368072613636
 C1 0.343914 0.592741 0.31952  -0.0368072613636
 C1 0.26504 0.593038 0.35908  -0.0368072613636
 C1 0.656086 0.40728 0.31952  -0.0368072613636
 C1 0.734961 0.406985 0.35908  -0.0368072613636
 C1 0.40819 0.656696 0.18292  -0.0368072613636
 C1 0.40789 0.735152 0.14262  -0.0368072613636
 C1 0.59181 0.343324 0.18292  -0.0368072613636
 C1 0.59211 0.264868 0.14262  -0.0368072613636
 C1 0.656087 0.592743 0.6804  -0.0368072613636
 C1 0.734961 0.59304 0.64090  -0.0368072613636
 C1 0.343915 0.407283 0.6804  -0.0368072613636
 C1 0.26504 0.406988 0.64090  -0.0368072613636
 C1 0.408191 0.343325 0.18292  -0.0368072613636
 C1 0.407892 0.264869 0.14262  -0.0368072613636
 C1 0.591809 0.656695 0.18292  -0.0368072613636
 C1 0.592108 0.735151 0.14262  -0.0368072613636
 C1 0.656077 0.407282 0.68047  -0.0368072613636
 C1 0.734945 0.406979 0.64090  -0.0368072613636
 C1 0.343925 0.592745 0.68047  -0.0368072613636
 C1 0.265057 0.593049 0.64090  -0.0368072613636
 C1 0.59181 0.343328 0.8170  -0.0368072613636
 C1 0.592108 0.264871 0.85736  -0.0368072613636
 C1 0.408192 0.656698 0.8170  -0.0368072613636
 C1 0.407893 0.735154 0.85736  -0.0368072613636
 C1 0.343924 0.407279 0.3195  -0.0368072613636
 C1 0.265056 0.406977 0.35908  -0.0368072613636
 C1 0.656076 0.592742 0.3195  -0.0368072613636
 C1 0.734943 0.593046 0.35908  -0.0368072613636
 C2 0.500001 0.615858 0.79609  -0.346681636364
 C3 0.500002 0.77467 0.87798  -0.122236636364
 C4 0.500002 0.857477 0.92197  0.725988363636
 C2 0.5 0.384168 0.79609  -0.346681636364
 C3 0.499999 0.225356 0.87798  -0.122236636364
 C4 0.499999 0.14255 0.92197  0.725988363636
 C2 0.384958 0.500013 0.29891  -0.346681636364
 C3 0.225174 0.500006 0.37926  -0.122236636364
 C4 0.141794 0.499977 0.4224  0.725988363636
 C2 0.615042 0.500008 0.29891  -0.346681636364
 C3 0.774825 0.500017 0.37926  -0.122236636364
 C4 0.858205 0.500048 0.42244  0.725988363636
 C2 0.5 0.615855 0.20389  -0.346681636364
 C3 0.499999 0.774667 0.1220  -0.122236636364
 C4 0.499999 0.857473 0.07801  0.725988363636
 C2 0.5 0.384165 0.20389  -0.346681636364
 C3 0.500001 0.225353 0.1220  -0.122236636364
 C4 0.500001 0.142547 0.07801  0.725988363636
 C2 0.615042 0.500015 0.70108  -0.346681636364
 C3 0.774826 0.500008 0.62073  -0.122236636364
 C4 0.858207 0.499979 0.57755  0.725988363636
 C2 0.384959 0.500011 0.70108  -0.346681636364
 C3 0.225176 0.50002 0.62073  -0.122236636364
 C4 0.141796 0.50005 0.57755  0.725988363636
 O1 0.586581 0.889838 0.93927  -0.646071636364
 O1 0.413421 0.110189 0.93927  -0.646071636364
 O1 0.109121 0.587395 0.43940  -0.646071636364
 O1 0.890879 0.412631 0.43940  -0.646071636364
 O1 0.413421 0.889835 0.06071  -0.646071636364
 O1 0.586579 0.110185 0.06071  -0.646071636364
 O1 0.890879 0.587397 0.56058  -0.646071636364
 O1 0.109125 0.412632 0.56058  -0.646071636364
 O1 0.413421 0.110182 0.06071  -0.646071636364
 O1 0.586579 0.889838 0.06071  -0.646071636364
 O1 0.890568 0.412522 0.5604  -0.646071636364
 O1 0.109435 0.587506 0.56047  -0.646071636364
 O1 0.586578 0.110185 0.93927  -0.646071636364
 O1 0.413423 0.889841 0.93927  -0.646071636364
 O1 0.109434 0.412521 0.43951  -0.646071636364
 O1 0.890565 0.587505 0.43951  -0.646071636364
