#======================================================================

# CRYSTAL DATA

#----------------------------------------------------------------------

data_VESTA_phase_1


_pd_phase_name                         MOF
_cell_length_a                         17.21500
_cell_length_b                         17.39500
_cell_length_c                         18.48200
_cell_angle_alpha                      90.03900
_cell_angle_beta                       90.01900
_cell_angle_gamma                      90.14000
_symmetry_space_group_name_H-M         "P 1"
_symmetry_Int_Tables_number            1

loop_
_symmetry_equiv_pos_as_xyz
   "x, y, z"

loop_
   _atom_site_label
   _atom_site_fract_x
   _atom_site_fract_y
   _atom_site_fract_z
 _atom_site_charge
 Cd1 0.772845 0.993875 0.52180  1.11686418605
 Cd1 0.273915 0.506692 0.47779  1.11686418605
 Cd1 0.272736 0.993703 0.97863  1.11686418605
 Cd1 0.773885 0.506816 0.02203  1.11686418605
 Cd1 0.727274 0.006284 0.02134  1.11686418605
 Cd1 0.226121 0.493175 0.97794  1.11686418605
 Cd1 0.227166 0.00613 0.47818  1.11686418605
 Cd1 0.726092 0.493302 0.5221  1.11686418605
 H1 0.603842 0.943765 0.62142  0.275144900332
 H1 0.473842 0.038604 0.62785  0.275144900332
 H1 0.642435 0.135572 0.48696  0.275144900332
 H1 0.388249 0.102141 0.54102  0.275144900332
 H1 0.302216 0.215026 0.52218  0.275144900332
 H1 0.501434 0.364071 0.51497  0.275144900332
 H1 0.58818 0.2533 0.53814  0.275144900332
 H1 0.707831 0.063137 0.35977  0.275144900332
 H1 0.701381 0.978478 0.23232  0.275144900332
 H1 0.794385 0.841696 0.40243  0.275144900332
 H1 0.735643 0.740604 0.33840  0.275144900332
 H1 0.752638 0.630674 0.25405  0.275144900332
 H1 0.785449 0.786494 0.07687  0.275144900332
 H1 0.774934 0.897629 0.16069  0.275144900332
 H1 0.104718 0.556924 0.37828  0.275144900332
 H1 0.974446 0.461889 0.37201  0.275144900332
 H1 0.143016 0.365091 0.5126  0.275144900332
 H1 0.888758 0.39801 0.4587  0.275144900332
 H1 0.802528 0.284885 0.47753  0.275144900332
 H1 0.001388 0.136322 0.48433  0.275144900332
 H1 0.088347 0.247346 0.46130  0.275144900332
 H1 0.208685 0.437234 0.63973  0.275144900332
 H1 0.201486 0.521799 0.76713  0.275144900332
 H1 0.295022 0.659259 0.5974  0.275144900332
 H1 0.235629 0.760191 0.66182  0.275144900332
 H1 0.251606 0.869854 0.74674  0.275144900332
 H1 0.285121 0.713465 0.92326  0.275144900332
 H1 0.275107 0.602665 0.83896  0.275144900332
 H1 0.103777 0.943505 0.87892  0.275144900332
 H1 0.973838 0.038359 0.87225  0.275144900332
 H1 0.142439 0.13575 0.01311  0.275144900332
 H1 0.888256 0.102195 0.95881  0.275144900332
 H1 0.802238 0.215114 0.97756  0.275144900332
 H1 0.001432 0.364171 0.98477  0.275144900332
 H1 0.08817 0.253348 0.96174  0.275144900332
 H1 0.207007 0.062713 0.14066  0.275144900332
 H1 0.200835 0.978011 0.26798  0.275144900332
 H1 0.294358 0.841572 0.09777  0.275144900332
 H1 0.235497 0.74029 0.16165  0.275144900332
 H1 0.252506 0.630415 0.24596  0.275144900332
 H1 0.285499 0.786372 0.42321  0.275144900332
 H1 0.274887 0.897449 0.33945  0.275144900332
 H1 0.604767 0.557242 0.12153  0.275144900332
 H1 0.474478 0.462225 0.12787  0.275144900332
 H1 0.642949 0.36513 0.98727  0.275144900332
 H1 0.388673 0.39804 0.04126  0.275144900332
 H1 0.302481 0.284765 0.02289  0.275144900332
 H1 0.501435 0.136309 0.01627  0.275144900332
 H1 0.588395 0.247525 0.03867  0.275144900332
 H1 0.708269 0.437479 0.85994  0.275144900332
 H1 0.701221 0.522035 0.73264  0.275144900332
 H1 0.79514 0.659331 0.90245  0.275144900332
 H1 0.735606 0.760373 0.83814  0.275144900332
 H1 0.751566 0.86996 0.75326  0.275144900332
 H1 0.785235 0.713415 0.57672  0.275144900332
 H1 0.775212 0.602691 0.66097  0.275144900332
 H1 0.896227 0.056477 0.12105  0.275144900332
 H1 0.026169 0.961625 0.12773  0.275144900332
 H1 0.85757 0.864238 0.98686  0.275144900332
 H1 0.111753 0.897792 0.04117  0.275144900332
 H1 0.197771 0.784873 0.02242  0.275144900332
 H1 0.998577 0.635818 0.01518  0.275144900332
 H1 0.911837 0.746641 0.03822  0.275144900332
 H1 0.792989 0.937265 0.85931  0.275144900332
 H1 0.79917 0.02196 0.7319  0.275144900332
 H1 0.705657 0.158416 0.90219  0.275144900332
 H1 0.76458 0.259684 0.83831  0.275144900332
 H1 0.747586 0.369566 0.75401  0.275144900332
 H1 0.714496 0.213618 0.57676  0.275144900332
 H1 0.7251 0.102538 0.66051  0.275144900332
 H1 0.395238 0.442746 0.8784  0.275144900332
 H1 0.525526 0.537764 0.87210  0.275144900332
 H1 0.357049 0.634862 0.01269  0.275144900332
 H1 0.611327 0.601948 0.95871  0.275144900332
 H1 0.697521 0.715221 0.97708  0.275144900332
 H1 0.49857 0.863682 0.98370  0.275144900332
 H1 0.411608 0.752469 0.96130  0.275144900332
 H1 0.291776 0.562492 0.14002  0.275144900332
 H1 0.29883 0.477928 0.26732  0.275144900332
 H1 0.204851 0.340658 0.09751  0.275144900332
 H1 0.26438 0.2396 0.1618  0.275144900332
 H1 0.248405 0.130018 0.24670  0.275144900332
 H1 0.214779 0.286574 0.42325  0.275144900332
 H1 0.224817 0.397294 0.33899  0.275144900332
 H1 0.396146 0.056221 0.37855  0.275144900332
 H1 0.526151 0.961389 0.37212  0.275144900332
 H1 0.357556 0.864415 0.51300  0.275144900332
 H1 0.611744 0.897853 0.45894  0.275144900332
 H1 0.697782 0.784972 0.47778  0.275144900332
 H1 0.498569 0.635922 0.48501  0.275144900332
 H1 0.411819 0.746688 0.4618  0.275144900332
 H1 0.292202 0.936866 0.64021  0.275144900332
 H1 0.298628 0.021516 0.76767  0.275144900332
 H1 0.205635 0.158304 0.59755  0.275144900332
 H1 0.264362 0.259386 0.66158  0.275144900332
 H1 0.247362 0.369321 0.74592  0.275144900332
 H1 0.214556 0.213508 0.92311  0.275144900332
 H1 0.225072 0.102368 0.83929  0.275144900332
 H1 0.895287 0.443064 0.62164  0.275144900332
 H1 0.025564 0.538091 0.62793  0.275144900332
 H1 0.857013 0.634908 0.48732  0.275144900332
 H1 0.111267 0.60199 0.54122  0.275144900332
 H1 0.197495 0.715129 0.5224  0.275144900332
 H1 0.998631 0.863687 0.51573  0.275144900332
 H1 0.911671 0.752647 0.53869  0.275144900332
 H1 0.791307 0.562754 0.36023  0.275144900332
 H1 0.798515 0.478187 0.2328  0.275144900332
 H1 0.704969 0.340729 0.40249  0.275144900332
 H1 0.764376 0.239798 0.33815  0.275144900332
 H1 0.748398 0.130133 0.25322  0.275144900332
 H1 0.714882 0.286522 0.0767  0.275144900332
 H1 0.724894 0.397323 0.16101  0.275144900332
 C1 0.591743 0.997256 0.5936  0.107119186047
 C1 0.527272 0.043191 0.59726  0.107119186047
 C2 0.61451 0.095761 0.52375  0.318524186047
 C3 0.493186 0.170711 0.54107  0.287799186047
 C4 0.412819 0.159727 0.53716  -0.804367063953
 C4 0.364738 0.222963 0.52689  -0.804367063953
 C5 0.396279 0.296787 0.51910  0.0122841860465
 C4 0.477068 0.306641 0.521  -0.804367063953
 C4 0.52574 0.244096 0.53345  -0.804367063953
 C6 0.343333 0.364301 0.50912  0.813164186047
 C1 0.723524 0.0 0.34929  0.107119186047
 C1 0.719932 0.962484 0.28628  0.107119186047
 C2 0.768765 0.890057 0.37447  0.318524186047
 C3 0.756054 0.82609 0.25478  0.287799186047
 C4 0.749362 0.751073 0.28166  -0.804367063953
 C4 0.758495 0.689373 0.23451  -0.804367063953
 C5 0.773096 0.701423 0.1607  0.0122841860465
 C4 0.77718 0.776864 0.13451  -0.804367063953
 C4 0.76955 0.8392 0.18119  -0.804367063953
 C6 0.782043 0.634369 0.11052  0.813164186047
 C1 0.092578 0.503378 0.40604  0.107119186047
 C1 0.027917 0.457366 0.40251  0.107119186047
 C2 0.115148 0.404869 0.47587  0.318524186047
 C3 0.993572 0.329713 0.45857  0.287799186047
 C4 0.913232 0.340494 0.46252  -0.804367063953
 C4 0.865025 0.277124 0.47277  -0.804367063953
 C5 0.896416 0.203378 0.48049  0.0122841860465
 C4 0.977168 0.193704 0.47804  -0.804367063953
 C4 0.025938 0.256392 0.46603  -0.804367063953
 C6 0.84333 0.135785 0.49068  0.813164186047
 C1 0.224254 0.496573 0.65029  0.107119186047
 C1 0.220307 0.537953 0.71328  0.107119186047
 C2 0.269395 0.610704 0.62531  0.318524186047
 C3 0.256104 0.674466 0.74513  0.287799186047
 C4 0.249211 0.749566 0.71856  -0.804367063953
 C4 0.257793 0.811128 0.76605  -0.804367063953
 C5 0.272325 0.798861 0.83978  0.0122841860465
 C4 0.276827 0.72331 0.86566  -0.804367063953
 C4 0.269572 0.661144 0.81869  -0.804367063953
 C6 0.280813 0.865625 0.89053  0.813164186047
 C1 0.091701 0.997096 0.906  0.107119186047
 C1 0.027244 0.043037 0.90286  0.107119186047
 C2 0.114499 0.095825 0.97634  0.318524186047
 C3 0.993206 0.170746 0.95882  0.287799186047
 C4 0.912838 0.159782 0.96268  -0.804367063953
 C4 0.864759 0.223039 0.97289  -0.804367063953
 C5 0.896295 0.296878 0.98069  0.0122841860465
 C4 0.977084 0.306728 0.97839  -0.804367063953
 C4 0.02573 0.244153 0.96640  -0.804367063953
 C6 0.843328 0.364383 0.99073  0.813164186047
 C1 0.22292 0.0 0.15107  0.107119186047
 C1 0.219452 0.962098 0.21401  0.107119186047
 C2 0.268544 0.889842 0.12577  0.318524186047
 C3 0.25593 0.825825 0.24535  0.287799186047
 C4 0.249244 0.750793 0.21840  -0.804367063953
 C4 0.25839 0.689132 0.26552  -0.804367063953
 C5 0.273046 0.701252 0.33927  0.0122841860465
 C4 0.277164 0.776708 0.36557  -0.804367063953
 C4 0.269498 0.839 0.31894  -0.804367063953
 C6 0.282029 0.634271 0.389  0.813164186047
 C1 0.5926 0.503642 0.09380  0.107119186047
 C1 0.527939 0.457642 0.09735  0.107119186047
 C2 0.615104 0.404993 0.02401  0.318524186047
 C3 0.493538 0.329823 0.04147  0.287799186047
 C4 0.41318 0.340525 0.03759  -0.804367063953
 C4 0.364988 0.277065 0.02763  -0.804367063953
 C5 0.396393 0.203281 0.02019  0.0122841860465
 C4 0.47717 0.193701 0.02246  -0.804367063953
 C4 0.52596 0.256496 0.03409  -0.804367063953
 C6 0.343324 0.135565 0.01039  0.813164186047
 C1 0.723989 0.496778 0.84946  0.107119186047
 C1 0.720095 0.538155 0.78652  0.107119186047
 C2 0.769395 0.610817 0.87457  0.318524186047
 C3 0.756149 0.674576 0.75481  0.287799186047
 C4 0.749187 0.749697 0.781  -0.804367063953
 C4 0.757794 0.811215 0.73394  -0.804367063953
 C5 0.772337 0.798881 0.6602  0.0122841860465
 C4 0.776913 0.72331 0.63432  -0.804367063953
 C4 0.769623 0.661188 0.68125  -0.804367063953
 C6 0.780858 0.865607 0.60952  0.813164186047
 C1 0.908305 0.002888 0.09338  0.107119186047
 C1 0.972762 0.956948 0.09711  0.107119186047
 C2 0.885509 0.904162 0.02363  0.318524186047
 C3 0.006802 0.829242 0.04115  0.287799186047
 C4 0.087171 0.840206 0.03730  -0.804367063953
 C4 0.13525 0.77695 0.0270  -0.804367063953
 C5 0.103713 0.703111 0.01928  0.0122841860465
 C4 0.022924 0.693261 0.0215  -0.804367063953
 C4 0.974278 0.755835 0.03356  -0.804367063953
 C6 0.156682 0.635608 0.0092  0.813164186047
 C1 0.777082 0.99645 0.84890  0.107119186047
 C1 0.780555 0.037877 0.78595  0.107119186047
 C2 0.731468 0.110142 0.87420  0.318524186047
 C3 0.744096 0.174157 0.75461  0.287799186047
 C4 0.750817 0.249186 0.78156  -0.804367063953
 C4 0.741675 0.310852 0.73444  -0.804367063953
 C5 0.726996 0.298736 0.66069  0.0122841860465
 C4 0.722846 0.22328 0.63440  -0.804367063953
 C4 0.730511 0.160985 0.68103  -0.804367063953
 C6 0.718004 0.365718 0.61047  0.813164186047
 C1 0.407404 0.496347 0.90617  0.107119186047
 C1 0.472063 0.542348 0.90262  0.107119186047
 C2 0.384897 0.594999 0.97595  0.318524186047
 C3 0.506463 0.670168 0.95849  0.287799186047
 C4 0.586821 0.659465 0.96238  -0.804367063953
 C4 0.635014 0.722923 0.97234  -0.804367063953
 C5 0.603611 0.796708 0.97978  0.0122841860465
 C4 0.522835 0.80629 0.97751  -0.804367063953
 C4 0.474043 0.743496 0.96588  -0.804367063953
 C6 0.656682 0.864423 0.98958  0.813164186047
 C1 0.276046 0.503195 0.15050  0.107119186047
 C1 0.279943 0.461815 0.21344  0.107119186047
 C2 0.230611 0.389167 0.125  0.318524186047
 C3 0.243857 0.325403 0.24515  0.287799186047
 C4 0.250807 0.25028 0.21857  -0.804367063953
 C4 0.242189 0.188764 0.26602  -0.804367063953
 C5 0.227658 0.201104 0.33975  0.0122841860465
 C4 0.223094 0.276676 0.36564  -0.804367063953
 C4 0.230396 0.338795 0.3187  -0.804367063953
 C6 0.219141 0.134381 0.39045  0.813164186047
 C1 0.408248 0.002731 0.40632  0.107119186047
 C1 0.472721 0.956799 0.4027  0.107119186047
 C2 0.385482 0.904226 0.47621  0.318524186047
 C3 0.50681 0.829281 0.45890  0.287799186047
 C4 0.587176 0.840266 0.46280  -0.804367063953
 C4 0.635261 0.777034 0.47307  -0.804367063953
 C5 0.603723 0.703209 0.48087  0.0122841860465
 C4 0.522934 0.693351 0.47858  -0.804367063953
 C4 0.474259 0.755895 0.46652  -0.804367063953
 C6 0.656673 0.635696 0.49086  0.813164186047
 C1 0.276503 0.996103 0.650  0.107119186047
 C1 0.280084 0.037513 0.71370  0.107119186047
 C2 0.231256 0.109942 0.6255  0.318524186047
 C3 0.243954 0.173905 0.74521  0.287799186047
 C4 0.250641 0.248921 0.71832  -0.804367063953
 C4 0.241508 0.310622 0.76546  -0.804367063953
 C5 0.226906 0.298573 0.83921  0.0122841860465
 C4 0.222825 0.223134 0.86547  -0.804367063953
 C4 0.230455 0.160796 0.81880  -0.804367063953
 C6 0.217962 0.365627 0.88945  0.813164186047
 C1 0.907433 0.496611 0.59389  0.107119186047
 C1 0.972097 0.542618 0.5974  0.107119186047
 C2 0.884875 0.595126 0.52407  0.318524186047
 C3 0.006448 0.670282 0.54140  0.287799186047
 C4 0.086791 0.659507 0.53746  -0.804367063953
 C4 0.134996 0.722882 0.52724  -0.804367063953
 C5 0.103604 0.796631 0.51955  0.0122841860465
 C4 0.022851 0.806302 0.52199  -0.804367063953
 C4 0.974083 0.743607 0.53397  -0.804367063953
 C6 0.156692 0.86422 0.50935  0.813164186047
 C1 0.775739 0.503415 0.34967  0.107119186047
 C1 0.77969 0.462033 0.2866  0.107119186047
 C2 0.730598 0.389284 0.37465  0.318524186047
 C3 0.743887 0.325521 0.25484  0.287799186047
 C4 0.750797 0.250422 0.28140  -0.804367063953
 C4 0.742207 0.18886 0.23392  -0.804367063953
 C5 0.727683 0.201127 0.16018  0.0122841860465
 C4 0.723172 0.276678 0.13431  -0.804367063953
 C4 0.730435 0.338844 0.1812  -0.804367063953
 C6 0.719189 0.134363 0.10944  0.813164186047
 N1 0.645627 0.030489 0.54749  -0.230805813953
 N2 0.542495 0.106055 0.55290  0.201084186047
 N1 0.754033 0.958249 0.40365  -0.230805813953
 N2 0.748578 0.889761 0.30289  0.201084186047
 N1 0.146462 0.470193 0.45209  -0.230805813953
 N2 0.043023 0.394506 0.4468  0.201084186047
 N1 0.254918 0.542409 0.59605  -0.230805813953
 N2 0.248908 0.610868 0.69682  0.201084186047
 N1 0.145598 0.030464 0.95273  -0.230805813953
 N2 0.042488 0.106045 0.94713  0.201084186047
 N1 0.253581 0.957981 0.09667  -0.230805813953
 N2 0.248336 0.889476 0.19732  0.201084186047
 N1 0.646441 0.470365 0.04775  -0.230805813953
 N2 0.542997 0.394691 0.05306  0.201084186047
 N1 0.754792 0.542555 0.90376  -0.230805813953
 N2 0.748862 0.61101 0.80306  0.201084186047
 N1 0.854409 0.969522 0.04724  -0.230805813953
 N2 0.95752 0.893942 0.05284  0.201084186047
 N1 0.746424 0.042003 0.90330  -0.230805813953
 N2 0.75168 0.110504 0.80264  0.201084186047
 N1 0.353561 0.529626 0.95222  -0.230805813953
 N2 0.457004 0.6053 0.9469  0.201084186047
 N1 0.245222 0.457427 0.09621  -0.230805813953
 N2 0.251157 0.388967 0.19690  0.201084186047
 N1 0.354366 0.969497 0.45248  -0.230805813953
 N2 0.457498 0.893934 0.44707  0.201084186047
 N1 0.245997 0.041753 0.59633  -0.230805813953
 N2 0.251435 0.110234 0.697  0.201084186047
 N1 0.853556 0.529802 0.54783  -0.230805813953
 N2 0.956999 0.605483 0.55311  0.201084186047
 N1 0.745071 0.45758 0.40391  -0.230805813953
 N2 0.75109 0.389118 0.30315  0.201084186047
 O1 0.372978 0.423898 0.47820  -0.436685813953
 O2 0.273824 0.359961 0.53089  -0.456475813953
 O2 0.796619 0.646558 0.04391  -0.456475813953
 O1 0.772807 0.566662 0.13655  -0.436685813953
 O1 0.872826 0.076266 0.52161  -0.436685813953
 O2 0.77375 0.139994 0.46903  -0.456475813953
 O2 0.29679 0.853233 0.95674  -0.456475813953
 O1 0.269971 0.933411 0.86521  -0.436685813953
 O1 0.872976 0.424031 0.02168  -0.436685813953
 O2 0.773787 0.35998 0.96  -0.456475813953
 O2 0.296617 0.646539 0.45611  -0.456475813953
 O1 0.272771 0.566533 0.36344  -0.436685813953
 O1 0.373108 0.075486 0.98063  -0.436685813953
 O2 0.273466 0.140179 0.03110  -0.456475813953
 O2 0.796824 0.853211 0.54331  -0.456475813953
 O1 0.76995 0.933392 0.63490  -0.436685813953
 O1 0.127034 0.575959 0.97829  -0.436685813953
 O2 0.226222 0.64001 0.03098  -0.456475813953
 O2 0.703393 0.353451 0.54386  -0.456475813953
 O1 0.727264 0.433457 0.63652  -0.436685813953
 O1 0.626899 0.924502 0.01935  -0.436685813953
 O2 0.726541 0.859809 0.96887  -0.456475813953
 O2 0.203186 0.14678 0.45666  -0.456475813953
 O1 0.230055 0.066596 0.36507  -0.436685813953
 O1 0.627029 0.576097 0.52177  -0.436685813953
 O2 0.726179 0.640034 0.46907  -0.456475813953
 O2 0.20339 0.353438 0.95606  -0.456475813953
 O1 0.227195 0.433334 0.86342  -0.436685813953
 O1 0.127193 0.923737 0.4784  -0.436685813953
 O2 0.226279 0.860002 0.53097  -0.456475813953
 O2 0.703225 0.146755 0.04323  -0.456475813953
 O1 0.730043 0.066579 0.13476  -0.436685813953
