#======================================================================

# CRYSTAL DATA

#----------------------------------------------------------------------

data_VESTA_phase_1


_pd_phase_name                         MOF
_cell_length_a                         22.91500
_cell_length_b                         13.72700
_cell_length_c                         18.17800
_cell_angle_alpha                      100.36600
_cell_angle_beta                       89.95600
_cell_angle_gamma                      114.76400
_symmetry_space_group_name_H-M         "P 1"
_symmetry_Int_Tables_number            1

loop_
_symmetry_equiv_pos_as_xyz
   "x, y, z"

loop_
   _atom_site_label
   _atom_site_fract_x
   _atom_site_fract_y
   _atom_site_fract_z
 _atom_site_charge
 Zn1 0.491004 0.39815 0.40315  0.908522653061
 Zn1 0.990997 0.39815 0.40315  0.908522653061
 Zn1 0.292195 0.602283 0.09688  0.908522653061
 Zn1 0.792184 0.602285 0.09688  0.908522653061
 Zn1 0.008994 0.601924 0.5968  0.908522653061
 Zn1 0.508985 0.601924 0.59683  0.908522653061
 Zn1 0.207811 0.397787 0.90310  0.908522653061
 Zn1 0.7078 0.397784 0.90310  0.908522653061
 H1 0.075664 0.644978 0.29604  0.101654684311
 H1 0.575647 0.644976 0.29604  0.101654684311
 H1 0.118298 0.799067 0.22554  0.101654684311
 H1 0.618286 0.79907 0.2255  0.101654684311
 H1 0.118681 0.023231 0.42388  0.101654684311
 H1 0.618682 0.023236 0.42389  0.101654684311
 H1 0.074059 0.868481 0.49361  0.101654684311
 H1 0.574053 0.868483 0.49361  0.101654684311
 H1 0.3951 0.339695 0.13854  0.101654684311
 H1 0.895086 0.339696 0.13854  0.101654684311
 H1 0.310451 0.204858 0.0391  0.101654684311
 H1 0.810439 0.204857 0.03916  0.101654684311
 H1 0.310973 0.940584 0.13483  0.101654684311
 H1 0.810964 0.940583 0.13482  0.101654684311
 H1 0.393786 0.077355 0.23655  0.101654684311
 H1 0.893775 0.077354 0.23655  0.101654684311
 H1 0.070389 0.310379 0.48672  0.101654684311
 H1 0.570375 0.310379 0.48672  0.101654684311
 H1 0.179414 0.311391 0.48786  0.101654684311
 H1 0.6794 0.31139 0.48786  0.101654684311
 H1 0.214529 0.477561 0.29980  0.101654684311
 H1 0.714517 0.47756 0.29980  0.101654684311
 H1 0.103858 0.468873 0.30778  0.101654684311
 H1 0.603845 0.468871 0.30778  0.101654684311
 H1 0.246495 0.246562 0.43475  0.101654684311
 H1 0.746482 0.246557 0.43475  0.101654684311
 H1 0.358205 0.263306 0.44050  0.101654684311
 H1 0.858191 0.263306 0.44050  0.101654684311
 H1 0.426771 0.548263 0.35615  0.101654684311
 H1 0.926758 0.548265 0.35615  0.101654684311
 H1 0.317211 0.544012 0.34534  0.101654684311
 H1 0.817196 0.544009 0.3453  0.101654684311
 H1 0.252963 0.355405 0.20391  0.101654684311
 H1 0.752949 0.355404 0.20391  0.101654684311
 H1 0.218789 0.201287 0.27434  0.101654684311
 H1 0.718774 0.201289 0.27434  0.101654684311
 H1 0.107071 0.976705 0.07605  0.101654684311
 H1 0.607047 0.976708 0.07606  0.101654684311
 H1 0.13961 0.131461 0.00639  0.101654684311
 H1 0.63959 0.131462 0.00639  0.101654684311
 H1 0.225613 0.660692 0.36164  0.101654684311
 H1 0.725596 0.660693 0.36164  0.101654684311
 H1 0.208262 0.795236 0.46101  0.101654684311
 H1 0.70824 0.795236 0.46100  0.101654684311
 H1 0.34069 0.059815 0.36494  0.101654684311
 H1 0.840663 0.059816 0.36493  0.101654684311
 H1 0.355225 0.92331 0.26323  0.101654684311
 H1 0.855201 0.923309 0.26322  0.101654684311
 H1 0.41548 0.689562 0.01313  0.101654684311
 H1 0.915474 0.689559 0.01313  0.101654684311
 H1 0.024034 0.688698 0.01202  0.101654684311
 H1 0.524032 0.688699 0.01202  0.101654684311
 H1 0.475704 0.522954 0.20029  0.101654684311
 H1 0.975695 0.522958 0.20029  0.101654684311
 H1 0.369364 0.531584 0.19233  0.101654684311
 H1 0.869356 0.531586 0.19233  0.101654684311
 H1 0.123608 0.753668 0.06507  0.101654684311
 H1 0.623596 0.753664 0.06507  0.101654684311
 H1 0.226966 0.737077 0.05939  0.101654684311
 H1 0.726957 0.737077 0.05939  0.101654684311
 H1 0.152594 0.452388 0.14405  0.101654684311
 H1 0.652583 0.452387 0.14405  0.101654684311
 H1 0.045116 0.456505 0.15483  0.101654684311
 H1 0.545105 0.456509 0.15484  0.101654684311
 H1 0.424336 0.355087 0.7039  0.101654684311
 H1 0.924333 0.355092 0.70394  0.101654684311
 H1 0.381697 0.200991 0.77443  0.101654684311
 H1 0.881693 0.200993 0.77443  0.101654684311
 H1 0.381315 0.976835 0.57608  0.101654684311
 H1 0.881286 0.976832 0.57608  0.101654684311
 H1 0.425939 0.13159 0.50636  0.101654684311
 H1 0.925918 0.13159 0.50636  0.101654684311
 H1 0.104905 0.660376 0.86144  0.101654684311
 H1 0.604889 0.660375 0.86144  0.101654684311
 H1 0.18956 0.795211 0.96081  0.101654684311
 H1 0.689542 0.79521 0.96081  0.101654684311
 H1 0.189051 0.059486 0.86514  0.101654684311
 H1 0.689033 0.059487 0.86514  0.101654684311
 H1 0.106236 0.922718 0.76342  0.101654684311
 H1 0.606218 0.922717 0.76342  0.101654684311
 H1 0.429616 0.68969 0.51325  0.101654684311
 H1 0.929602 0.689692 0.51325  0.101654684311
 H1 0.320589 0.688673 0.51211  0.101654684311
 H1 0.820577 0.688676 0.51211  0.101654684311
 H1 0.285474 0.522506 0.70018  0.101654684311
 H1 0.785461 0.522513 0.70018  0.101654684311
 H1 0.396147 0.531201 0.69220  0.101654684311
 H1 0.896132 0.531201 0.69220  0.101654684311
 H1 0.253509 0.753505 0.56522  0.101654684311
 H1 0.753495 0.75351 0.56522  0.101654684311
 H1 0.1418 0.736763 0.55947  0.101654684311
 H1 0.641786 0.736764 0.55948  0.101654684311
 H1 0.073233 0.451808 0.6438  0.101654684311
 H1 0.573218 0.451807 0.64382  0.101654684311
 H1 0.182795 0.45606 0.65464  0.101654684311
 H1 0.68278 0.45606 0.65464  0.101654684311
 H1 0.247046 0.64466 0.79607  0.101654684311
 H1 0.747025 0.644666 0.79607  0.101654684311
 H1 0.281219 0.798772 0.72563  0.101654684311
 H1 0.781205 0.798777 0.7256  0.101654684311
 H1 0.392941 0.02336 0.9239  0.101654684311
 H1 0.89295 0.023355 0.92391  0.101654684311
 H1 0.360405 0.868609 0.99358  0.101654684311
 H1 0.860402 0.868607 0.99358  0.101654684311
 H1 0.274391 0.339382 0.63834  0.101654684311
 H1 0.774385 0.339385 0.63834  0.101654684311
 H1 0.291744 0.20484 0.53897  0.101654684311
 H1 0.79174 0.204843 0.53898  0.101654684311
 H1 0.159308 0.940258 0.63503  0.101654684311
 H1 0.659311 0.940259 0.6350  0.101654684311
 H1 0.144776 0.076762 0.7367  0.101654684311
 H1 0.644773 0.076765 0.73675  0.101654684311
 H1 0.084516 0.310502 0.98684  0.101654684311
 H1 0.584512 0.310509 0.9868  0.101654684311
 H1 0.475959 0.311363 0.98796  0.101654684311
 H1 0.975956 0.311361 0.98795  0.101654684311
 H1 0.024299 0.477115 0.79969  0.101654684311
 H1 0.524287 0.477106 0.79968  0.101654684311
 H1 0.130638 0.468489 0.80765  0.101654684311
 H1 0.630629 0.468486 0.8076  0.101654684311
 H1 0.376394 0.246401 0.93490  0.101654684311
 H1 0.876383 0.246401 0.93491  0.101654684311
 H1 0.273035 0.262992 0.94058  0.101654684311
 H1 0.773026 0.262994 0.9405  0.101654684311
 H1 0.347411 0.547686 0.85593  0.101654684311
 H1 0.847401 0.547686 0.85593  0.101654684311
 H1 0.454888 0.54356 0.84514  0.101654684311
 H1 0.954878 0.543563 0.84514  0.101654684311
 C1 0.044643 0.65407 0.43974  0.656680153061
 C1 0.544661 0.654086 0.43975  0.656680153061
 C2 0.071202 0.747189 0.39852  -0.0162898469388
 C2 0.571169 0.747183 0.39851  -0.0162898469388
 C3 0.084402 0.727991 0.32296  -0.125936513605
 C3 0.584383 0.727988 0.32296  -0.125936513605
 C3 0.107955 0.812858 0.28392  -0.125936513605
 C3 0.607932 0.812854 0.28392  -0.125936513605
 C4 0.119458 0.919622 0.32036  0.179078903061
 C4 0.619452 0.919623 0.32036  0.179078903061
 C3 0.108199 0.939648 0.39636  -0.125936513605
 C3 0.608191 0.939652 0.39636  -0.125936513605
 C3 0.083491 0.853903 0.43488  -0.125936513605
 C3 0.583479 0.853906 0.43488  -0.125936513605
 C1 0.445912 0.297877 0.25755  0.656680153061
 C1 0.945887 0.297883 0.25756  0.656680153061
 C2 0.399678 0.216265 0.19371  -0.0162898469388
 C2 0.899672 0.216264 0.19370  -0.0162898469388
 C3 0.376913 0.252179 0.13696  -0.125936513605
 C3 0.876894 0.252179 0.13697  -0.125936513605
 C3 0.330361 0.177682 0.081  -0.125936513605
 C3 0.830351 0.177681 0.08129  -0.125936513605
 C4 0.306315 0.064633 0.08013  0.179078903061
 C4 0.806299 0.064633 0.08014  0.179078903061
 C3 0.329797 0.028173 0.13593  -0.125936513605
 C3 0.829791 0.028172 0.13592  -0.125936513605
 C3 0.375782 0.10371 0.19218  -0.125936513605
 C3 0.875765 0.10371 0.19218  -0.125936513605
 C5 0.104024 0.345649 0.44618  0.174681403061
 C5 0.604011 0.345645 0.44618  0.174681403061
 C3 0.164667 0.345756 0.44572  -0.125936513605
 C3 0.664656 0.345761 0.44573  -0.125936513605
 C2 0.206691 0.393395 0.39297  -0.0162898469388
 C2 0.706676 0.393386 0.39296  -0.0162898469388
 C3 0.184333 0.43824 0.34189  -0.125936513605
 C3 0.684322 0.438247 0.34189  -0.125936513605
 C5 0.122926 0.434717 0.34619  0.174681403061
 C5 0.622912 0.434712 0.34619  0.174681403061
 C2 0.272155 0.397133 0.39281  -0.0162898469388
 C2 0.772142 0.397137 0.39281  -0.0162898469388
 C3 0.284943 0.316916 0.41850  -0.125936513605
 C3 0.784928 0.31691 0.41849  -0.125936513605
 C5 0.347416 0.325409 0.42166  0.174681403061
 C5 0.847402 0.325411 0.4216  0.174681403061
 C5 0.385395 0.483709 0.37397  0.174681403061
 C5 0.885383 0.483712 0.37398  0.174681403061
 C3 0.324107 0.480954 0.36829  -0.125936513605
 C3 0.824092 0.480947 0.36829  -0.125936513605
 C1 0.217233 0.346086 0.06029  0.656680153061
 C1 0.71725 0.346066 0.06027  0.656680153061
 C2 0.197375 0.252963 0.10147  -0.0162898469388
 C2 0.697336 0.25297 0.10148  -0.0162898469388
 C3 0.220225 0.272291 0.17699  -0.125936513605
 C3 0.720227 0.272283 0.17699  -0.125936513605
 C3 0.201485 0.187406 0.21599  -0.125936513605
 C3 0.701463 0.187409 0.21600  -0.125936513605
 C4 0.159641 0.080525 0.17956  0.179078903061
 C4 0.659638 0.080522 0.17956  0.179078903061
 C3 0.138342 0.060372 0.10358  -0.125936513605
 C3 0.638311 0.060379 0.10359  -0.125936513605
 C3 0.15636 0.146127 0.06511  -0.125936513605
 C3 0.656359 0.146124 0.06510  -0.125936513605
 C1 0.297266 0.702729 0.24244  0.656680153061
 C1 0.797279 0.702741 0.24245  0.656680153061
 C2 0.291813 0.78427 0.30628  -0.0162898469388
 C2 0.791784 0.784269 0.3062  -0.0162898469388
 C3 0.251076 0.748213 0.36310  -0.125936513605
 C3 0.751077 0.748214 0.36311  -0.125936513605
 C3 0.241734 0.822561 0.41879  -0.125936513605
 C3 0.741713 0.82256 0.41878  -0.125936513605
 C4 0.274083 0.935619 0.41983  0.179078903061
 C4 0.774074 0.935619 0.41983  0.179078903061
 C3 0.315791 0.972225 0.36394  -0.125936513605
 C3 0.815761 0.972226 0.36392  -0.125936513605
 C3 0.324042 0.896833 0.30766  -0.125936513605
 C3 0.824038 0.896834 0.30767  -0.125936513605
 C5 0.431412 0.654415 0.05372  0.174681403061
 C5 0.931405 0.654415 0.05372  0.174681403061
 C3 0.492014 0.654367 0.05418  -0.125936513605
 C3 0.992006 0.654362 0.05418  -0.125936513605
 C2 0.010131 0.606897 0.10701  -0.0162898469388
 C2 0.510121 0.606892 0.10701  -0.0162898469388
 C3 0.465226 0.562117 0.1581  -0.125936513605
 C3 0.96522 0.562117 0.15813  -0.125936513605
 C5 0.405581 0.5656 0.15385  0.174681403061
 C5 0.905575 0.565604 0.15385  0.174681403061
 C2 0.073733 0.603211 0.10717  -0.0162898469388
 C2 0.573723 0.603211 0.10717  -0.0162898469388
 C3 0.126778 0.683416 0.08143  -0.125936513605
 C3 0.626768 0.683414 0.08143  -0.125936513605
 C5 0.185016 0.674996 0.07829  0.174681403061
 C5 0.685007 0.674997 0.07829  0.174681403061
 C5 0.143586 0.516847 0.12615  0.174681403061
 C5 0.643576 0.516847 0.12615  0.174681403061
 C3 0.083654 0.519533 0.13182  -0.125936513605
 C3 0.583645 0.519534 0.13182  -0.125936513605
 C1 0.455329 0.345984 0.56023  0.656680153061
 C1 0.955312 0.345983 0.56022  0.656680153061
 C2 0.428816 0.252883 0.60146  -0.0162898469388
 C2 0.928811 0.252888 0.60147  -0.0162898469388
 C3 0.415603 0.272077 0.67701  -0.125936513605
 C3 0.915594 0.27208 0.67701  -0.125936513605
 C3 0.392053 0.187209 0.7160  -0.125936513605
 C3 0.892047 0.187212 0.71606  -0.125936513605
 C4 0.380539 0.080442 0.67961  0.179078903061
 C4 0.880522 0.080442 0.67961  0.179078903061
 C3 0.391801 0.060417 0.60362  -0.125936513605
 C3 0.891782 0.060416 0.60361  -0.125936513605
 C3 0.416513 0.146165 0.565  -0.125936513605
 C3 0.916493 0.146164 0.56509  -0.125936513605
 C1 0.054104 0.702193 0.7424  0.656680153061
 C1 0.554097 0.702189 0.74242  0.656680153061
 C2 0.100332 0.783808 0.80627  -0.0162898469388
 C2 0.600309 0.783809 0.80628  -0.0162898469388
 C3 0.123099 0.747893 0.86301  -0.125936513605
 C3 0.623086 0.747892 0.86301  -0.125936513605
 C3 0.169651 0.822389 0.91868  -0.125936513605
 C3 0.669631 0.82239 0.91869  -0.125936513605
 C4 0.193705 0.935437 0.91984  0.179078903061
 C4 0.69369 0.935437 0.9198  0.179078903061
 C3 0.170223 0.971898 0.86404  -0.125936513605
 C3 0.670201 0.971898 0.86405  -0.125936513605
 C3 0.124239 0.896363 0.80779  -0.125936513605
 C3 0.624224 0.896362 0.80779  -0.125936513605
 C5 0.395979 0.654415 0.55379  0.174681403061
 C5 0.895968 0.654425 0.553  0.174681403061
 C3 0.335337 0.654317 0.55425  -0.125936513605
 C3 0.835322 0.65431 0.55425  -0.125936513605
 C2 0.29331 0.606664 0.60700  -0.0162898469388
 C2 0.7933 0.60668 0.60701  -0.0162898469388
 C3 0.315672 0.561835 0.65809  -0.125936513605
 C3 0.815657 0.561828 0.65808  -0.125936513605
 C5 0.377076 0.565349 0.6537  0.174681403061
 C5 0.877065 0.56536 0.65379  0.174681403061
 C2 0.227849 0.602936 0.60717  -0.0162898469388
 C2 0.727835 0.602933 0.60716  -0.0162898469388
 C3 0.215061 0.683153 0.5814  -0.125936513605
 C3 0.715048 0.683158 0.58148  -0.125936513605
 C5 0.152589 0.67466 0.57831  0.174681403061
 C5 0.652575 0.674659 0.57831  0.174681403061
 C5 0.11461 0.516362 0.62600  0.174681403061
 C5 0.614595 0.516358 0.62600  0.174681403061
 C3 0.175899 0.519119 0.6316  -0.125936513605
 C3 0.675885 0.519123 0.63169  -0.125936513605
 C1 0.282762 0.653993 0.93970  0.656680153061
 C1 0.782717 0.654013 0.9397  0.656680153061
 C2 0.302644 0.7471 0.89850  -0.0162898469388
 C2 0.802657 0.747093 0.89849  -0.0162898469388
 C3 0.279771 0.72778 0.82299  -0.125936513605
 C3 0.779748 0.727786 0.82299  -0.125936513605
 C3 0.298524 0.812657 0.78398  -0.125936513605
 C3 0.798522 0.812655 0.78397  -0.125936513605
 C4 0.34036 0.919543 0.82041  0.179078903061
 C4 0.840343 0.919545 0.82042  0.179078903061
 C3 0.361676 0.93969 0.8963  -0.125936513605
 C3 0.861685 0.939684 0.89638  -0.125936513605
 C3 0.343638 0.853943 0.93487  -0.125936513605
 C3 0.843626 0.853944 0.93487  -0.125936513605
 C1 0.202734 0.297342 0.75754  0.656680153061
 C1 0.702694 0.297329 0.75753  0.656680153061
 C2 0.208189 0.215805 0.69370  -0.0162898469388
 C2 0.708196 0.215807 0.6937  -0.0162898469388
 C3 0.248923 0.251861 0.6368  -0.125936513605
 C3 0.7489 0.251863 0.63687  -0.125936513605
 C3 0.258267 0.177513 0.58119  -0.125936513605
 C3 0.758267 0.177518 0.58120  -0.125936513605
 C4 0.225916 0.064454 0.58015  0.179078903061
 C4 0.725902 0.064458 0.58015  0.179078903061
 C3 0.184206 0.027849 0.63604  -0.125936513605
 C3 0.684214 0.02785 0.63605  -0.125936513605
 C3 0.175953 0.103242 0.69231  -0.125936513605
 C3 0.675935 0.103241 0.6923  -0.125936513605
 C5 0.068585 0.345646 0.94625  0.174681403061
 C5 0.568579 0.345649 0.94625  0.174681403061
 C3 0.007985 0.345704 0.94579  -0.125936513605
 C3 0.507979 0.345701 0.94579  -0.125936513605
 C2 0.489869 0.393166 0.89296  -0.0162898469388
 C2 0.989861 0.393166 0.89296  -0.0162898469388
 C3 0.034775 0.437956 0.84185  -0.125936513605
 C3 0.534767 0.437951 0.84184  -0.125936513605
 C5 0.094418 0.434465 0.84613  0.174681403061
 C5 0.594411 0.434463 0.8461  0.174681403061
 C2 0.426269 0.396854 0.89280  -0.0162898469388
 C2 0.926261 0.39686 0.8928  -0.0162898469388
 C3 0.373223 0.316652 0.9185  -0.125936513605
 C3 0.873214 0.316651 0.91854  -0.125936513605
 C5 0.314985 0.325072 0.92168  0.174681403061
 C5 0.814977 0.325076 0.92169  0.174681403061
 C5 0.356418 0.483223 0.87383  0.174681403061
 C5 0.856409 0.483227 0.87383  0.174681403061
 C3 0.416348 0.480534 0.86816  -0.125936513605
 C3 0.916339 0.480535 0.86815  -0.125936513605
 N1 0.083161 0.389981 0.39766  -0.323502346939
 N1 0.58315 0.389986 0.39766  -0.323502346939
 N1 0.397721 0.408763 0.40149  -0.323502346939
 N1 0.897709 0.408761 0.40149  -0.323502346939
 N2 0.142338 0.011847 0.2858  -0.145879846939
 N2 0.642379 0.011852 0.28584  -0.145879846939
 N2 0.258209 0.982479 0.02672  -0.145879846939
 N2 0.758207 0.982476 0.02671  -0.145879846939
 N1 0.388276 0.610154 0.10230  -0.323502346939
 N1 0.888268 0.610147 0.10229  -0.323502346939
 N1 0.193534 0.591775 0.09859  -0.323502346939
 N1 0.693524 0.591774 0.09859  -0.323502346939
 N2 0.136591 0.988286 0.21406  -0.145879846939
 N2 0.636515 0.988291 0.21407  -0.145879846939
 N2 0.267077 0.017664 0.4732  -0.145879846939
 N2 0.767003 0.017647 0.47324  -0.145879846939
 N1 0.416845 0.610099 0.60232  -0.323502346939
 N1 0.916829 0.610089 0.60232  -0.323502346939
 N1 0.102282 0.591305 0.59849  -0.323502346939
 N1 0.602269 0.591311 0.59849  -0.323502346939
 N2 0.357609 0.988213 0.71413  -0.145879846939
 N2 0.857604 0.988212 0.71413  -0.145879846939
 N2 0.241809 0.017591 0.97325  -0.145879846939
 N2 0.741784 0.017593 0.97326  -0.145879846939
 N1 0.111726 0.389923 0.8976  -0.323502346939
 N1 0.611719 0.389925 0.8976  -0.323502346939
 N1 0.306469 0.408296 0.90139  -0.323502346939
 N1 0.806459 0.408296 0.90139  -0.323502346939
 N2 0.363475 0.011776 0.78590  -0.145879846939
 N2 0.863467 0.011774 0.78590  -0.145879846939
 N2 0.232921 0.982411 0.52669  -0.145879846939
 N2 0.732973 0.982431 0.52674  -0.145879846939
 O1 0.042056 0.562614 0.40623  -0.598580680272
 O1 0.542033 0.562612 0.40622  -0.598580680272
 O2 0.479802 0.394721 0.25001  -0.594337346939
 O2 0.979796 0.394716 0.25001  -0.594337346939
 O1 0.446069 0.263132 0.31890  -0.598580680272
 O1 0.946056 0.263134 0.31890  -0.598580680272
 O1 0.026831 0.674663 0.50504  -0.598580680272
 O1 0.526805 0.674657 0.50503  -0.598580680272
 O1 0.260252 0.437749 0.09384  -0.598580680272
 O1 0.760223 0.437753 0.09385  -0.598580680272
 O2 0.282741 0.605968 0.25005  -0.594337346939
 O2 0.782712 0.605962 0.25004  -0.594337346939
 O1 0.314967 0.737463 0.18110  -0.598580680272
 O1 0.814947 0.737458 0.18109  -0.598580680272
 O1 0.189181 0.325238 0.99494  -0.598580680272
 O1 0.689154 0.325245 0.99495  -0.598580680272
 O1 0.457957 0.437457 0.59376  -0.598580680272
 O1 0.957953 0.437463 0.59376  -0.598580680272
 O2 0.020199 0.605359 0.74998  -0.594337346939
 O2 0.520183 0.60536 0.74998  -0.594337346939
 O1 0.053938 0.736939 0.68108  -0.598580680272
 O1 0.553921 0.736941 0.68108  -0.598580680272
 O1 0.473178 0.325411 0.49494  -0.598580680272
 O1 0.973175 0.325417 0.49494  -0.598580680272
 O1 0.239763 0.562317 0.90614  -0.598580680272
 O1 0.739766 0.562312 0.90613  -0.598580680272
 O2 0.217267 0.394109 0.74994  -0.594337346939
 O2 0.717269 0.394114 0.74995  -0.594337346939
 O1 0.18504 0.262603 0.8188  -0.598580680272
 O1 0.685044 0.262608 0.81889  -0.598580680272
 O1 0.310837 0.67483 0.00503  -0.598580680272
 O1 0.810836 0.674823 0.0050  -0.598580680272
