#======================================================================

# CRYSTAL DATA

#----------------------------------------------------------------------

data_VESTA_phase_1


_pd_phase_name                         MOF
_cell_length_a                         22.68400
_cell_length_b                         12.99000
_cell_length_c                         12.98600
_cell_angle_alpha                      117.49500
_cell_angle_beta                       94.95500
_cell_angle_gamma                      85.03900
_symmetry_space_group_name_H-M         "P 1"
_symmetry_Int_Tables_number            1

loop_
_symmetry_equiv_pos_as_xyz
   "x, y, z"

loop_
   _atom_site_label
   _atom_site_fract_x
   _atom_site_fract_y
   _atom_site_fract_z
 _atom_site_charge
 Zn1 0.435085 0.495158 0.97368  0.947527407407
 Zn1 0.935087 0.495158 0.97368  0.947527407407
 Zn1 0.314915 0.973658 0.4951  0.947527407407
 Zn1 0.814918 0.973658 0.4951  0.947527407407
 Zn1 0.064918 0.504839 0.02633  0.947527407407
 Zn1 0.56492 0.504839 0.02633  0.947527407407
 Zn1 0.185087 0.026339 0.50485  0.947527407407
 Zn1 0.685089 0.026338 0.50485  0.947527407407
 H1 0.373653 0.796551 0.30266  0.0939915740741
 H1 0.873655 0.79655 0.30266  0.0939915740741
 H1 0.057915 0.747437 0.38819  0.0939915740741
 H1 0.557917 0.747438 0.38819  0.0939915740741
 H1 0.041558 0.900337 0.59164  0.0939915740741
 H1 0.54156 0.900337 0.59164  0.0939915740741
 H1 0.094591 0.818525 0.9689  0.0939915740741
 H1 0.594593 0.818526 0.96898  0.0939915740741
 H1 0.422783 0.705812 0.80630  0.0939915740741
 H1 0.922785 0.705814 0.80630  0.0939915740741
 H1 0.417088 0.864601 0.74430  0.0939915740741
 H1 0.91709 0.864604 0.74430  0.0939915740741
 H1 0.376356 0.302643 0.79657  0.0939915740741
 H1 0.876358 0.302643 0.79657  0.0939915740741
 H1 0.1921 0.388163 0.7473  0.0939915740741
 H1 0.692102 0.388163 0.7473  0.0939915740741
 H1 0.208442 0.591575 0.90025  0.0939915740741
 H1 0.708444 0.591575 0.90025  0.0939915740741
 H1 0.15541 0.969065 0.81873  0.0939915740741
 H1 0.655413 0.969066 0.81873  0.0939915740741
 H1 0.327199 0.80633 0.70582  0.0939915740741
 H1 0.827201 0.806329 0.70582  0.0939915740741
 H1 0.332887 0.744224 0.86457  0.0939915740741
 H1 0.832889 0.744223 0.86457  0.0939915740741
 H1 0.12635 0.203447 0.69735  0.0939915740741
 H1 0.626353 0.203446 0.69735  0.0939915740741
 H1 0.442089 0.252563 0.61182  0.0939915740741
 H1 0.942091 0.252564 0.61182  0.0939915740741
 H1 0.458446 0.099664 0.40837  0.0939915740741
 H1 0.958448 0.099664 0.40837  0.0939915740741
 H1 0.405411 0.181473 0.0310  0.0939915740741
 H1 0.905413 0.181474 0.03104  0.0939915740741
 H1 0.077222 0.294177 0.19370  0.0939915740741
 H1 0.577223 0.29418 0.19370  0.0939915740741
 H1 0.082918 0.135385 0.255  0.0939915740741
 H1 0.582919 0.13539 0.25570  0.0939915740741
 H1 0.123647 0.697353 0.2034  0.0939915740741
 H1 0.623649 0.697353 0.2034  0.0939915740741
 H1 0.307904 0.611835 0.25264  0.0939915740741
 H1 0.807906 0.611835 0.25264  0.0939915740741
 H1 0.291562 0.408423 0.09975  0.0939915740741
 H1 0.791564 0.408423 0.09975  0.0939915740741
 H1 0.344591 0.030929 0.18127  0.0939915740741
 H1 0.844594 0.030931 0.18128  0.0939915740741
 H1 0.172805 0.193679 0.29419  0.0939915740741
 H1 0.672807 0.193675 0.29419  0.0939915740741
 H1 0.167119 0.255785 0.13544  0.0939915740741
 H1 0.66712 0.255781 0.13544  0.0939915740741
 C1 0.474859 0.662922 0.2086  0.707777407407
 C1 0.974861 0.662921 0.2086  0.707777407407
 C2 0.466504 0.757588 0.3302  -0.250720092593
 C2 0.966506 0.757585 0.33023  -0.250720092593
 C3 0.411911 0.816916 0.36406  0.217727407407
 C3 0.911914 0.816915 0.36406  0.217727407407
 C4 0.014201 0.789632 0.41312  -0.0650500925926
 C4 0.514203 0.789633 0.41312  -0.0650500925926
 C4 0.005266 0.874597 0.52566  -0.0650500925926
 C4 0.505268 0.874596 0.52566  -0.0650500925926
 C5 0.448796 0.928834 0.55377  0.239142407407
 C5 0.948799 0.928834 0.55377  0.239142407407
 C5 0.003113 0.92283 0.82780  0.239142407407
 C5 0.503115 0.92283 0.82780  0.239142407407
 C3 0.054338 0.826178 0.92008  0.217727407407
 C3 0.55434 0.826176 0.92008  0.217727407407
 C2 0.008473 0.750668 0.89351  -0.250720092593
 C2 0.508476 0.750664 0.8935  -0.250720092593
 C4 0.458549 0.7644 0.8286  -0.0650500925926
 C4 0.958551 0.764403 0.82864  -0.0650500925926
 C1 0.010286 0.659906 0.93488  0.707777407407
 C1 0.510289 0.659906 0.93488  0.707777407407
 C4 0.455377 0.851117 0.79396  -0.0650500925926
 C4 0.95538 0.851115 0.79396  -0.0650500925926
 C1 0.275157 0.208654 0.66292  0.707777407407
 C1 0.775159 0.208654 0.66292  0.707777407407
 C2 0.283509 0.330205 0.75756  -0.250720092593
 C2 0.783511 0.330205 0.7575  -0.250720092593
 C3 0.338096 0.364036 0.81691  0.217727407407
 C3 0.838098 0.364036 0.81691  0.217727407407
 C4 0.23581 0.413091 0.78957  -0.0650500925926
 C4 0.735812 0.413092 0.78957  -0.0650500925926
 C4 0.244734 0.525601 0.87455  -0.0650500925926
 C4 0.744737 0.525601 0.87455  -0.0650500925926
 C5 0.301201 0.553703 0.92880  0.239142407407
 C5 0.801203 0.553702 0.92880  0.239142407407
 C5 0.246872 0.827769 0.92291  0.239142407407
 C5 0.746874 0.827768 0.92291  0.239142407407
 C3 0.195659 0.920136 0.82633  0.217727407407
 C3 0.695661 0.920137 0.82633  0.217727407407
 C2 0.241519 0.893565 0.75077  -0.250720092593
 C2 0.741521 0.893565 0.75077  -0.250720092593
 C4 0.291435 0.828646 0.76444  -0.0650500925926
 C4 0.791437 0.828646 0.76444  -0.0650500925926
 C1 0.239704 0.934976 0.66002  0.707777407407
 C1 0.739707 0.934976 0.66002  0.707777407407
 C4 0.294611 0.793951 0.85116  -0.0650500925926
 C4 0.794613 0.79395 0.85116  -0.0650500925926
 C1 0.025144 0.337077 0.79134  0.707777407407
 C1 0.525147 0.337079 0.79134  0.707777407407
 C2 0.033499 0.242413 0.66978  -0.250720092593
 C2 0.533502 0.242412 0.66978  -0.250720092593
 C3 0.088092 0.183083 0.63595  0.217727407407
 C3 0.588094 0.183082 0.63595  0.217727407407
 C4 0.485802 0.210367 0.58689  -0.0650500925926
 C4 0.985805 0.210367 0.58689  -0.0650500925926
 C4 0.494738 0.125406 0.47435  -0.0650500925926
 C4 0.99474 0.125404 0.47435  -0.0650500925926
 C5 0.051207 0.071165 0.44624  0.239142407407
 C5 0.551209 0.071165 0.44624  0.239142407407
 C5 0.49689 0.077166 0.17221  0.239142407407
 C5 0.996892 0.077165 0.17221  0.239142407407
 C3 0.445664 0.173822 0.07993  0.217727407407
 C3 0.945666 0.17382 0.07993  0.217727407407
 C2 0.491529 0.249332 0.10650  -0.250720092593
 C2 0.991532 0.249327 0.10650  -0.250720092593
 C4 0.041455 0.235589 0.17136  -0.0650500925926
 C4 0.541457 0.235594 0.17137  -0.0650500925926
 C1 0.489715 0.340091 0.0651  0.707777407407
 C1 0.989718 0.34009 0.0651  0.707777407407
 C4 0.044626 0.148878 0.20604  -0.0650500925926
 C4 0.544629 0.148877 0.20604  -0.0650500925926
 C1 0.224847 0.791342 0.33709  0.707777407407
 C1 0.724849 0.791342 0.33709  0.707777407407
 C2 0.216494 0.669791 0.24245  -0.250720092593
 C2 0.716497 0.669792 0.24245  -0.250720092593
 C3 0.161907 0.635961 0.18310  0.217727407407
 C3 0.66191 0.635961 0.18310  0.217727407407
 C4 0.264194 0.586905 0.21044  -0.0650500925926
 C4 0.764196 0.586906 0.21044  -0.0650500925926
 C4 0.255269 0.474397 0.12545  -0.0650500925926
 C4 0.755272 0.474397 0.1254  -0.0650500925926
 C5 0.198802 0.446295 0.07121  0.239142407407
 C5 0.698805 0.446295 0.07121  0.239142407407
 C5 0.253131 0.172231 0.07710  0.239142407407
 C5 0.753134 0.172231 0.07710  0.239142407407
 C3 0.304343 0.07986 0.17368  0.217727407407
 C3 0.804346 0.079861 0.17368  0.217727407407
 C2 0.258484 0.106435 0.24924  -0.250720092593
 C2 0.758486 0.106434 0.24924  -0.250720092593
 C4 0.208569 0.171358 0.23557  -0.0650500925926
 C4 0.708571 0.171356 0.23557  -0.0650500925926
 C1 0.260297 0.065022 0.33999  0.707777407407
 C1 0.7603 0.065021 0.33999  0.707777407407
 C4 0.205394 0.206054 0.14885  -0.0650500925926
 C4 0.705395 0.206052 0.14885  -0.0650500925926
 S1 0.007414 0.04213 0.79536  0.0274574074074
 S1 0.507416 0.042131 0.79536  0.0274574074074
 S1 0.431941 0.038004 0.69629  0.0274574074074
 S1 0.931944 0.038004 0.69629  0.0274574074074
 S1 0.242568 0.79524 0.0421  0.0274574074074
 S1 0.74257 0.79524 0.0421  0.0274574074074
 S1 0.318047 0.696174 0.03796  0.0274574074074
 S1 0.81805 0.696174 0.03796  0.0274574074074
 S1 0.492589 0.957867 0.2046  0.0274574074074
 S1 0.992591 0.957867 0.2046  0.0274574074074
 S1 0.068061 0.961994 0.30372  0.0274574074074
 S1 0.568064 0.961994 0.30372  0.0274574074074
 S1 0.257435 0.204757 0.95786  0.0274574074074
 S1 0.757438 0.204757 0.95786  0.0274574074074
 S1 0.181956 0.303823 0.96205  0.0274574074074
 S1 0.681958 0.303823 0.96205  0.0274574074074
 N1 0.051747 0.91157 0.88847  -0.391712592593
 N1 0.551749 0.911569 0.88847  -0.391712592593
 N2 0.402655 0.901567 0.47336  -0.338692592593
 N2 0.902658 0.901567 0.47336  -0.338692592593
 N1 0.198243 0.888472 0.91170  -0.391712592593
 N1 0.698246 0.888472 0.91170  -0.391712592593
 N2 0.347345 0.473317 0.90155  -0.338692592593
 N2 0.847348 0.473317 0.90155  -0.338692592593
 N1 0.448255 0.088429 0.1115  -0.391712592593
 N1 0.948258 0.088427 0.1115  -0.391712592593
 N2 0.097347 0.098431 0.5266  -0.338692592593
 N2 0.59735 0.09843 0.5266  -0.338692592593
 N1 0.301759 0.111525 0.08831  -0.391712592593
 N1 0.801762 0.111526 0.08831  -0.391712592593
 N2 0.152658 0.526681 0.0984  -0.338692592593
 N2 0.65266 0.52668 0.09846  -0.338692592593
 O1 0.059956 0.633045 0.97241  -0.600910092593
 O1 0.559959 0.633048 0.9724  -0.600910092593
 O1 0.460769 0.617292 0.92907  -0.600910092593
 O1 0.960771 0.617289 0.92907  -0.600910092593
 O1 0.028152 0.632738 0.18066  -0.600910092593
 O1 0.528155 0.632736 0.18066  -0.600910092593
 O1 0.428402 0.620914 0.14512  -0.600910092593
 O1 0.928404 0.620916 0.14512  -0.600910092593
 O1 0.190035 0.972515 0.63317  -0.600910092593
 O1 0.690038 0.972516 0.63317  -0.600910092593
 O1 0.289223 0.929131 0.61736  -0.600910092593
 O1 0.789225 0.929131 0.61736  -0.600910092593
 O1 0.221862 0.180667 0.63274  -0.600910092593
 O1 0.721865 0.180667 0.63274  -0.600910092593
 O1 0.321615 0.145108 0.62089  -0.600910092593
 O1 0.821617 0.145107 0.62089  -0.600910092593
 O1 0.440045 0.366949 0.02759  -0.600910092593
 O1 0.940048 0.366952 0.02760  -0.600910092593
 O1 0.039233 0.382708 0.07094  -0.600910092593
 O1 0.539235 0.382705 0.07094  -0.600910092593
 O1 0.471851 0.36726 0.81935  -0.600910092593
 O1 0.971853 0.367259 0.81935  -0.600910092593
 O1 0.071601 0.379082 0.85489  -0.600910092593
 O1 0.571604 0.379083 0.85489  -0.600910092593
 O1 0.309966 0.02748 0.36683  -0.600910092593
 O1 0.809968 0.02748 0.36683  -0.600910092593
 O1 0.210779 0.07087 0.38265  -0.600910092593
 O1 0.710781 0.070868 0.38265  -0.600910092593
 O1 0.278141 0.81933 0.36727  -0.600910092593
 O1 0.778144 0.819329 0.36727  -0.600910092593
 O1 0.178388 0.854892 0.37911  -0.600910092593
 O1 0.678391 0.85489 0.3791  -0.600910092593
