#======================================================================

# CRYSTAL DATA

#----------------------------------------------------------------------

data_VESTA_phase_1


_pd_phase_name                         MOF
_cell_length_a                         13.21700
_cell_length_b                         14.82900
_cell_length_c                         21.94200
_cell_angle_alpha                      89.92500
_cell_angle_beta                       90.03700
_cell_angle_gamma                      90.03200
_symmetry_space_group_name_H-M         "P 1"
_symmetry_Int_Tables_number            1

loop_
_symmetry_equiv_pos_as_xyz
   "x, y, z"

loop_
   _atom_site_label
   _atom_site_fract_x
   _atom_site_fract_y
   _atom_site_fract_z
 _atom_site_charge
 Zn1 0.417127 0.484602 0.80045  0.868453829787
 Zn1 0.919743 0.484598 0.80251  0.868453829787
 Zn1 0.333174 0.515496 0.3012  0.868453829787
 Zn1 0.831144 0.515448 0.30104  0.868453829787
 Zn1 0.080537 0.98458 0.69869  0.868453829787
 Zn1 0.582796 0.984529 0.69875  0.868453829787
 Zn1 0.168543 0.015165 0.19747  0.868453829787
 Zn1 0.66712 0.015578 0.19784  0.868453829787
 H1 0.094117 0.39708 0.71693  0.0951687161509
 H1 0.589986 0.396458 0.7139  0.0951687161509
 H1 0.454586 0.301365 0.87564  0.0951687161509
 H1 0.953985 0.299765 0.87657  0.0951687161509
 H1 0.087986 0.169422 0.83422  0.0951687161509
 H1 0.590947 0.172171 0.83420  0.0951687161509
 H1 0.179565 0.24426 0.68033  0.0951687161509
 H1 0.679964 0.245795 0.67908  0.0951687161509
 H1 0.179965 0.152674 0.73213  0.0951687161509
 H1 0.680423 0.154146 0.73082  0.0951687161509
 H1 0.312693 0.323044 0.74306  0.0951687161509
 H1 0.812465 0.324978 0.74200  0.0951687161509
 H1 0.307344 0.237301 0.79818  0.0951687161509
 H1 0.806677 0.239639 0.79739  0.0951687161509
 H1 0.405692 0.090394 0.77886  0.0951687161509
 H1 0.902027 0.090593 0.77774  0.0951687161509
 H1 0.390098 0.279962 0.63432  0.0951687161509
 H1 0.893914 0.283057 0.63476  0.0951687161509
 H1 0.030722 0.145373 0.60605  0.0951687161509
 H1 0.528669 0.143793 0.60546  0.0951687161509
 H1 0.034873 0.482592 0.14156  0.0951687161509
 H1 0.536506 0.481512 0.14145  0.0951687161509
 H1 0.470315 0.570597 0.10662  0.0951687161509
 H1 0.968075 0.57115 0.10651  0.0951687161509
 H1 0.421564 0.370236 0.0860  0.0951687161509
 H1 0.921273 0.370431 0.08587  0.0951687161509
 H1 0.356037 0.461861 0.05369  0.0951687161509
 H1 0.855446 0.461594 0.05319  0.0951687161509
 H1 0.01797 0.509367 0.0002  0.0951687161509
 H1 0.518402 0.50876 0.0002  0.0951687161509
 H1 0.471857 0.402513 0.97836  0.0951687161509
 H1 0.972487 0.40276 0.97841  0.0951687161509
 H1 0.149531 0.437994 0.06633  0.0951687161509
 H1 0.649754 0.436378 0.06591  0.0951687161509
 H1 0.093238 0.331224 0.05572  0.0951687161509
 H1 0.592771 0.329919 0.05510  0.0951687161509
 H1 0.139058 0.333365 0.94535  0.0951687161509
 H1 0.638241 0.332374 0.9447  0.0951687161509
 H1 0.245026 0.341725 0.99335  0.0951687161509
 H1 0.744605 0.340818 0.99243  0.0951687161509
 H1 0.145178 0.49888 0.92419  0.0951687161509
 H1 0.643785 0.497517 0.92333  0.0951687161509
 H1 0.246211 0.51237 0.97542  0.0951687161509
 H1 0.743918 0.511953 0.97505  0.0951687161509
 H1 0.160087 0.603916 0.21440  0.0951687161509
 H1 0.659141 0.604899 0.21445  0.0951687161509
 H1 0.295569 0.698774 0.37609  0.0951687161509
 H1 0.794514 0.698441 0.37652  0.0951687161509
 H1 0.159013 0.827906 0.33452  0.0951687161509
 H1 0.659055 0.828481 0.33498  0.0951687161509
 H1 0.070351 0.754729 0.17930  0.0951687161509
 H1 0.571186 0.757501 0.17944  0.0951687161509
 H1 0.070192 0.846387 0.23094  0.0951687161509
 H1 0.568731 0.847489 0.23231  0.0951687161509
 H1 0.438525 0.675168 0.2404  0.0951687161509
 H1 0.937145 0.676219 0.24212  0.0951687161509
 H1 0.442102 0.759045 0.29678  0.0951687161509
 H1 0.943124 0.761661 0.29727  0.0951687161509
 H1 0.345448 0.908044 0.27758  0.0951687161509
 H1 0.844576 0.908658 0.27834  0.0951687161509
 H1 0.358824 0.71886 0.13306  0.0951687161509
 H1 0.859802 0.720422 0.13334  0.0951687161509
 H1 0.221472 0.856258 0.10422  0.0951687161509
 H1 0.721254 0.856926 0.10480  0.0951687161509
 H1 0.210568 0.519341 0.64192  0.0951687161509
 H1 0.716381 0.517812 0.64266  0.0951687161509
 H1 0.27647 0.429977 0.60746  0.0951687161509
 H1 0.782393 0.428493 0.60818  0.0951687161509
 H1 0.326141 0.630149 0.58643  0.0951687161509
 H1 0.830545 0.628708 0.58612  0.0951687161509
 H1 0.39152 0.538277 0.55453  0.0951687161509
 H1 0.895524 0.536833 0.55399  0.0951687161509
 H1 0.229286 0.491635 0.50082  0.0951687161509
 H1 0.732583 0.489471 0.5014  0.0951687161509
 H1 0.276214 0.597736 0.4787  0.0951687161509
 H1 0.778374 0.595779 0.4790  0.0951687161509
 H1 0.097971 0.564599 0.5661  0.0951687161509
 H1 0.601523 0.561546 0.56720  0.0951687161509
 H1 0.155058 0.670919 0.55476  0.0951687161509
 H1 0.658275 0.668109 0.55628  0.0951687161509
 H1 0.109822 0.667624 0.44439  0.0951687161509
 H1 0.612149 0.665885 0.44595  0.0951687161509
 H1 0.003334 0.659552 0.49192  0.0951687161509
 H1 0.5063 0.658085 0.49398  0.0951687161509
 H1 0.104426 0.502079 0.42411  0.0951687161509
 H1 0.605034 0.500102 0.42542  0.0951687161509
 H1 0.003234 0.488546 0.47516  0.0951687161509
 H1 0.503583 0.487616 0.4764  0.0951687161509
 H1 0.411349 0.895355 0.78556  0.0951687161509
 H1 0.908111 0.895274 0.78490  0.0951687161509
 H1 0.045177 0.80106 0.62368  0.0951687161509
 H1 0.54459 0.80169 0.62303  0.0951687161509
 H1 0.408026 0.672397 0.66452  0.0951687161509
 H1 0.910224 0.670605 0.66534  0.0951687161509
 H1 0.321738 0.743707 0.82034  0.0951687161509
 H1 0.821365 0.741383 0.82027  0.0951687161509
 H1 0.319002 0.653429 0.7677  0.0951687161509
 H1 0.818299 0.651998 0.76696  0.0951687161509
 H1 0.188662 0.825537 0.75942  0.0951687161509
 H1 0.688682 0.824709 0.75998  0.0951687161509
 H1 0.192259 0.741727 0.70305  0.0951687161509
 H1 0.692007 0.741927 0.70292  0.0951687161509
 H1 0.09668 0.591973 0.722  0.0951687161509
 H1 0.593617 0.593567 0.72037  0.0951687161509
 H1 0.10836 0.782159 0.86647  0.0951687161509
 H1 0.610101 0.778347 0.8673  0.0951687161509
 H1 0.47125 0.641289 0.89456  0.0951687161509
 H1 0.971328 0.64447 0.89529  0.0951687161509
 H1 0.463807 0.981008 0.35766  0.0951687161509
 H1 0.965611 0.980547 0.35740  0.0951687161509
 H1 0.031846 0.07016 0.39154  0.0951687161509
 H1 0.528868 0.071595 0.39130  0.0951687161509
 H1 0.079731 0.870049 0.41400  0.0951687161509
 H1 0.579566 0.87226 0.41478  0.0951687161509
 H1 0.145808 0.961962 0.44546  0.0951687161509
 H1 0.644049 0.965217 0.44599  0.0951687161509
 H1 0.481565 0.0 0.49882  0.0951687161509
 H1 0.984339 0.0 0.49886  0.0951687161509
 H1 0.029175 0.903519 0.52109  0.0951687161509
 H1 0.527865 0.906209 0.52166  0.0951687161509
 H1 0.350103 0.939313 0.43386  0.0951687161509
 H1 0.851485 0.939499 0.43376  0.0951687161509
 H1 0.407295 0.832992 0.44467  0.0951687161509
 H1 0.907256 0.832472 0.44402  0.0951687161509
 H1 0.362337 0.835081 0.55509  0.0951687161509
 H1 0.862787 0.834053 0.55454  0.0951687161509
 H1 0.255947 0.842611 0.5074  0.0951687161509
 H1 0.756353 0.84308 0.50701  0.0951687161509
 H1 0.354792 0.0 0.5762  0.0951687161509
 H1 0.857374 0.999247 0.57640  0.0951687161509
 H1 0.253931 0.0 0.52488  0.0951687161509
 H1 0.75652 0.0 0.52517  0.0951687161509
 H1 0.34157 0.104124 0.28372  0.0951687161509
 H1 0.840439 0.103564 0.28448  0.0951687161509
 H1 0.202967 0.19935 0.12295  0.0951687161509
 H1 0.704363 0.199609 0.12317  0.0951687161509
 H1 0.338058 0.329605 0.16444  0.0951687161509
 H1 0.84021 0.32893 0.1651  0.0951687161509
 H1 0.428249 0.257444 0.31916  0.0951687161509
 H1 0.929186 0.254916 0.32009  0.0951687161509
 H1 0.430464 0.347573 0.26624  0.0951687161509
 H1 0.92982 0.346588 0.26837  0.0951687161509
 H1 0.062504 0.176266 0.2575  0.0951687161509
 H1 0.560901 0.175557 0.25795  0.0951687161509
 H1 0.056851 0.261664 0.20228  0.0951687161509
 H1 0.557161 0.25981 0.20175  0.0951687161509
 H1 0.154865 0.409058 0.22124  0.0951687161509
 H1 0.654394 0.408309 0.22077  0.0951687161509
 H1 0.140802 0.219837 0.36603  0.0951687161509
 H1 0.640021 0.219231 0.36564  0.0951687161509
 H1 0.279577 0.356294 0.39435  0.0951687161509
 H1 0.777945 0.35627 0.39427  0.0951687161509
 H1 0.283658 0.016863 0.85873  0.0951687161509
 H1 0.785659 0.0174 0.85902  0.0951687161509
 H1 0.216066 0.928905 0.89400  0.0951687161509
 H1 0.717227 0.930435 0.89487  0.0951687161509
 H1 0.170084 0.129929 0.91362  0.0951687161509
 H1 0.672696 0.132113 0.91259  0.0951687161509
 H1 0.104041 0.039145 0.94666  0.0951687161509
 H1 0.605073 0.04243 0.9458  0.0951687161509
 H1 0.266641 0.991767 0.99981  0.0951687161509
 H1 0.766569 0.994605 0.  0.0951687161509
 H1 0.221085 0.098385 0.02136  0.0951687161509
 H1 0.721302 0.10176 0.02093  0.0951687161509
 H1 0.39785 0.063226 0.93337  0.0951687161509
 H1 0.898883 0.064972 0.93383  0.0951687161509
 H1 0.341736 0.169974 0.9442  0.0951687161509
 H1 0.843598 0.172081 0.94457  0.0951687161509
 H1 0.388142 0.167294 0.05456  0.0951687161509
 H1 0.889228 0.168902 0.05510  0.0951687161509
 H1 0.4939 0.15902 0.00648  0.0951687161509
 H1 0.995209 0.159988 0.00720  0.0951687161509
 H1 0.393673 0.001549 0.07516  0.0951687161509
 H1 0.89305 0.003365 0.07567  0.0951687161509
 H1 0.494653 0.988336 0.02395  0.0951687161509
 H1 0.993887 0.989122 0.02441  0.0951687161509
 C1 0.075489 0.354245 0.75536  0.136673829787
 C1 0.57303 0.354422 0.75305  0.136673829787
 C2 0.505681 0.302255 0.83710  -0.0611630452128
 C2 0.0 0.300908 0.8383  -0.0611630452128
 C2 0.071461 0.236594 0.81783  -0.0611630452128
 C2 0.572532 0.238516 0.81703  -0.0611630452128
 C3 0.191431 0.225723 0.72824  -0.0663461702128
 C3 0.691535 0.227252 0.72702  -0.0663461702128
 C3 0.298335 0.25079 0.74938  -0.0663461702128
 C3 0.798143 0.252743 0.74851  -0.0663461702128
 C1 0.419275 0.121855 0.7350  0.136673829787
 C1 0.917513 0.12267 0.73437  0.136673829787
 C2 0.41285 0.219732 0.65869  -0.0611630452128
 C2 0.91487 0.222024 0.65880  -0.0611630452128
 C2 0.480998 0.153042 0.64513  -0.0611630452128
 C2 0.982154 0.154611 0.64532  -0.0611630452128
 C4 0.385823 0.502669 0.17565  0.711873829787
 C4 0.883907 0.502759 0.17550  0.711873829787
 C5 0.462101 0.500498 0.12319  -0.175864503546
 C5 0.960429 0.501019 0.12312  -0.175864503546
 C5 0.430957 0.440151 0.06974  -0.175864503546
 C5 0.930344 0.440376 0.06959  -0.175864503546
 C5 0.506509 0.439254 0.01676  -0.175864503546
 C5 0.0 0.439831 0.01687  -0.175864503546
 C5 0.108436 0.396261 0.03286  -0.175864503546
 C5 0.608227 0.395033 0.03241  -0.175864503546
 C5 0.17722 0.378474 0.97789  -0.175864503546
 C5 0.676561 0.377451 0.97724  -0.175864503546
 C5 0.210883 0.463659 0.94409  -0.175864503546
 C5 0.709606 0.462891 0.94356  -0.175864503546
 C4 0.283586 0.446263 0.89158  0.711873829787
 C4 0.783362 0.446211 0.89154  0.711873829787
 C1 0.177018 0.645872 0.25350  0.136673829787
 C1 0.67621 0.646654 0.25363  0.136673829787
 C2 0.244461 0.697917 0.3375  -0.0611630452128
 C2 0.743568 0.697975 0.33787  -0.0611630452128
 C2 0.177502 0.761641 0.31738  -0.0611630452128
 C2 0.677167 0.762164 0.31775  -0.0611630452128
 C3 0.058689 0.773334 0.22718  -0.0663461702128
 C3 0.558498 0.774424 0.22752  -0.0663461702128
 C3 0.451781 0.747354 0.24785  -0.0663461702128
 C3 0.951809 0.748407 0.24846  -0.0663461702128
 C1 0.331347 0.876789 0.23380  0.136673829787
 C1 0.830812 0.877587 0.2344  0.136673829787
 C2 0.336686 0.779165 0.15743  -0.0611630452128
 C2 0.837104 0.780413 0.15787  -0.0611630452128
 C2 0.269158 0.846432 0.14388  -0.0611630452128
 C2 0.768957 0.847249 0.14447  -0.0611630452128
 C4 0.360994 0.497582 0.67652  0.711873829787
 C4 0.867242 0.497155 0.67671  0.711873829787
 C5 0.284975 0.500061 0.62389  -0.175864503546
 C5 0.790636 0.498769 0.62429  -0.175864503546
 C5 0.316591 0.560218 0.57035  -0.175864503546
 C5 0.820871 0.558646 0.57033  -0.175864503546
 C5 0.241275 0.561168 0.51718  -0.175864503546
 C5 0.744423 0.559071 0.51771  -0.175864503546
 C5 0.139579 0.605615 0.53243  -0.175864503546
 C5 0.642721 0.603073 0.53361  -0.175864503546
 C5 0.071402 0.622782 0.47703  -0.175864503546
 C5 0.573849 0.620991 0.47861  -0.175864503546
 C5 0.038414 0.537157 0.44364  -0.175864503546
 C5 0.53958 0.535933 0.44501  -0.175864503546
 C4 0.467319 0.553777 0.39225  0.711873829787
 C4 0.965867 0.553772 0.3909  0.711873829787
 C1 0.427562 0.853707 0.74622  0.136673829787
 C1 0.925655 0.853279 0.74594  0.136673829787
 C2 0.993886 0.801558 0.66212  -0.0611630452128
 C2 0.49387 0.802301 0.6617  -0.0611630452128
 C2 0.426907 0.738514 0.68185  -0.0611630452128
 C2 0.927742 0.737204 0.68231  -0.0611630452128
 C3 0.308848 0.726518 0.77232  -0.0663461702128
 C3 0.8084 0.72504 0.7721  -0.0663461702128
 C3 0.202042 0.753386 0.75199  -0.0663461702128
 C3 0.701739 0.752644 0.75197  -0.0663461702128
 C1 0.082117 0.623464 0.76612  0.136673829787
 C1 0.580086 0.623651 0.76457  0.136673829787
 C2 0.086611 0.721607 0.84221  -0.0611630452128
 C2 0.587011 0.719007 0.84219  -0.0611630452128
 C2 0.019219 0.654181 0.85574  -0.0611630452128
 C2 0.518793 0.651929 0.8549  -0.0611630452128
 C4 0.116316 0.0 0.32309  0.711873829787
 C4 0.61423 0.0 0.32325  0.711873829787
 C5 0.039968 0.999825 0.37556  -0.175864503546
 C5 0.537961 0.0 0.3757  -0.175864503546
 C5 0.070761 0.940283 0.42959  -0.175864503546
 C5 0.569411 0.942512 0.43007  -0.175864503546
 C5 0.995127 0.940539 0.48256  -0.175864503546
 C5 0.493489 0.942404 0.48289  -0.175864503546
 C5 0.391778 0.897997 0.46735  -0.175864503546
 C5 0.892742 0.897427 0.46701  -0.175864503546
 C5 0.323589 0.879879 0.52255  -0.175864503546
 C5 0.824512 0.87952 0.5222  -0.175864503546
 C5 0.289457 0.964792 0.55627  -0.175864503546
 C5 0.791529 0.964472 0.55632  -0.175864503546
 C4 0.216378 0.946684 0.60852  0.711873829787
 C4 0.718413 0.946525 0.60857  0.711873829787
 C1 0.323573 0.146379 0.24488  0.136673829787
 C1 0.82328 0.145872 0.24553  0.136673829787
 C2 0.254474 0.198585 0.16133  -0.0611630452128
 C2 0.75548 0.198522 0.16174  -0.0611630452128
 C2 0.320803 0.262865 0.18139  -0.0611630452128
 C2 0.822158 0.262348 0.18204  -0.0611630452128
 C3 0.440785 0.274519 0.2710  -0.0663461702128
 C3 0.941118 0.273515 0.27220  -0.0663461702128
 C3 0.048016 0.248467 0.25112  -0.0663461702128
 C3 0.547511 0.247764 0.25067  -0.0663461702128
 C1 0.168991 0.377715 0.26503  0.136673829787
 C1 0.668283 0.377049 0.26462  0.136673829787
 C2 0.163289 0.280028 0.34151  -0.0611630452128
 C2 0.662447 0.279468 0.34116  -0.0611630452128
 C2 0.231565 0.346826 0.35480  -0.0611630452128
 C2 0.730257 0.346567 0.35461  -0.0611630452128
 C4 0.132664 0.997117 0.82454  0.711873829787
 C4 0.6347 0.997569 0.82459  0.711873829787
 C5 0.208998 0.998906 0.87706  -0.175864503546
 C5 0.71074 0.000107 0.87725  -0.175864503546
 C5 0.178983 0.060159 0.93025  -0.175864503546
 C5 0.680519 0.06254 0.92979  -0.175864503546
 C5 0.255099 0.061172 0.98301  -0.175864503546
 C5 0.755729 0.06386 0.98302  -0.175864503546
 C5 0.356972 0.104843 0.96695  -0.175864503546
 C5 0.858113 0.106842 0.96731  -0.175864503546
 C5 0.426027 0.122307 0.02189  -0.175864503546
 C5 0.926905 0.123751 0.02245  -0.175864503546
 C5 0.459462 0.036847 0.0554  -0.175864503546
 C5 0.959337 0.037913 0.0559  -0.175864503546
 C4 0.032185 0.054065 0.10855  0.711873829787
 C4 0.532219 0.05377 0.10800  0.711873829787
 N1 0.008462 0.373926 0.79884  -0.379046170213
 N1 0.506263 0.374169 0.79666  -0.379046170213
 N2 0.114743 0.270803 0.76510  0.0504588297872
 N2 0.614286 0.271978 0.76364  0.0504588297872
 N2 0.374437 0.199309 0.71592  0.0504588297872
 N2 0.874591 0.201103 0.71548  0.0504588297872
 N1 0.484716 0.092531 0.69333  -0.379046170213
 N1 0.9835 0.093172 0.69303  -0.379046170213
 N1 0.243889 0.626062 0.29714  -0.379046170213
 N1 0.742662 0.626297 0.29736  -0.379046170213
 N2 0.13568 0.728269 0.26401  0.0504588297872
 N2 0.635471 0.729253 0.26421  0.0504588297872
 N2 0.375373 0.799047 0.21467  0.0504588297872
 N2 0.875629 0.800286 0.21516  0.0504588297872
 N1 0.266168 0.906789 0.19207  -0.379046170213
 N1 0.765322 0.907326 0.19281  -0.379046170213
 N1 0.493972 0.873785 0.70242  -0.379046170213
 N1 0.992322 0.873591 0.70234  -0.379046170213
 N2 0.38583 0.771487 0.73550  0.0504588297872
 N2 0.88544 0.770373 0.73556  0.0504588297872
 N2 0.125764 0.70149 0.78515  0.0504588297872
 N2 0.625125 0.700474 0.78463  0.0504588297872
 N1 0.016733 0.593495 0.80772  -0.379046170213
 N1 0.514784 0.593001 0.80599  -0.379046170213
 N1 0.256496 0.126304 0.20145  -0.379046170213
 N1 0.756445 0.126223 0.20186  -0.379046170213
 N2 0.363652 0.229365 0.23448  0.0504588297872
 N2 0.864192 0.228596 0.23529  0.0504588297872
 N2 0.124281 0.300263 0.28437  0.0504588297872
 N2 0.623875 0.299434 0.28387  0.0504588297872
 N1 0.234849 0.407221 0.30653  -0.379046170213
 N1 0.733585 0.406896 0.30630  -0.379046170213
 O1 0.426711 0.5079 0.22974  -0.649706170213
 O1 0.924686 0.507855 0.22960  -0.649706170213
 O2 0.292793 0.500125 0.1655  -0.635071170213
 O2 0.790884 0.500102 0.16539  -0.635071170213
 O1 0.337661 0.515601 0.87451  -0.649706170213
 O1 0.836331 0.516258 0.87460  -0.649706170213
 O2 0.28896 0.370671 0.86671  -0.635071170213
 O2 0.790852 0.370558 0.86695  -0.635071170213
 O1 0.320133 0.492191 0.73057  -0.649706170213
 O1 0.826466 0.492095 0.73078  -0.649706170213
 O2 0.454116 0.500025 0.66674  -0.635071170213
 O2 0.960248 0.499949 0.66667  -0.635071170213
 O1 0.413805 0.484386 0.37460  -0.649706170213
 O1 0.912121 0.484083 0.37416  -0.649706170213
 O2 0.461789 0.629705 0.36779  -0.635071170213
 O2 0.960117 0.629083 0.36555  -0.635071170213
 O1 0.075364 0.0 0.26896  -0.649706170213
 O1 0.573255 0.0 0.2691  -0.649706170213
 O2 0.209365 0.0 0.33320  -0.635071170213
 O2 0.707273 0.0 0.33322  -0.635071170213
 O1 0.16404 0.016358 0.6266  -0.649706170213
 O1 0.666159 0.016285 0.62668  -0.649706170213
 O2 0.208942 0.870241 0.63206  -0.635071170213
 O2 0.710905 0.870114 0.63215  -0.635071170213
 O1 0.173562 0.992026 0.77050  -0.649706170213
 O1 0.675761 0.992163 0.77060  -0.649706170213
 O2 0.039629 0.999794 0.8345  -0.635071170213
 O2 0.541622 0.999896 0.83447  -0.635071170213
 O1 0.088387 0.985074 0.12363  -0.649706170213
 O1 0.586126 0.984217 0.1248  -0.649706170213
 O2 0.035829 0.128314 0.13535  -0.635071170213
 O2 0.537928 0.129136 0.13316  -0.635071170213
