#======================================================================

# CRYSTAL DATA

#----------------------------------------------------------------------

data_VESTA_phase_1


_pd_phase_name                         MOF
_cell_length_a                         19.00900
_cell_length_b                         13.05600
_cell_length_c                         12.88200
_cell_angle_alpha                      111.49000
_cell_angle_beta                       105.09700
_cell_angle_gamma                      98.84400
_symmetry_space_group_name_H-M         "P 1"
_symmetry_Int_Tables_number            1

loop_
_symmetry_equiv_pos_as_xyz
   "x, y, z"

loop_
   _atom_site_label
   _atom_site_fract_x
   _atom_site_fract_y
   _atom_site_fract_z
 _atom_site_charge
 Cd1 0.009489 0.395659 0.575  1.00569798246
 Cd1 0.509497 0.39566 0.57509  1.00569798246
 Cd1 0.490512 0.604314 0.42492  1.00569798246
 Cd1 0.990516 0.604313 0.42492  1.00569798246
 H1 0.316806 0.350866 0.45326  0.108669732456
 H1 0.816815 0.350866 0.45326  0.108669732456
 H1 0.216877 0.150386 0.26459  0.108669732456
 H1 0.716885 0.150387 0.26459  0.108669732456
 H1 0.442413 0.123323 0.32985  0.108669732456
 H1 0.942421 0.123321 0.32985  0.108669732456
 H1 0.193948 0.944362 0.20764  0.108669732456
 H1 0.693956 0.944363 0.20764  0.108669732456
 H1 0.144401 0.756314 0.03501  0.108669732456
 H1 0.644408 0.756316 0.03501  0.108669732456
 H1 0.339704 0.830543 0.93549  0.108669732456
 H1 0.839711 0.830543 0.93549  0.108669732456
 H1 0.388622 0.019307 0.10706  0.108669732456
 H1 0.88863 0.019307 0.10706  0.108669732456
 H1 0.087608 0.649505 0.83047  0.108669732456
 H1 0.587615 0.649507 0.8304  0.108669732456
 H1 0.311765 0.631114 0.84767  0.108669732456
 H1 0.811772 0.631115 0.84767  0.108669732456
 H1 0.206673 0.44061 0.65471  0.108669732456
 H1 0.70668 0.440611 0.6547  0.108669732456
 H1 0.025194 0.055808 0.6206  0.108669732456
 H1 0.5252 0.055807 0.62063  0.108669732456
 H1 0.116378 0.147811 0.72000  0.108669732456
 H1 0.616384 0.147811 0.72000  0.108669732456
 H1 0.20844 0.247347 0.69004  0.108669732456
 H1 0.708446 0.247348 0.69004  0.108669732456
 H1 0.103545 0.851186 0.40550  0.108669732456
 H1 0.603553 0.851188 0.40549  0.108669732456
 H1 0.344022 0.29364 0.70911  0.108669732456
 H1 0.844029 0.293641 0.7091  0.108669732456
 H1 0.352337 0.66582 0.64052  0.108669732456
 H1 0.852344 0.665819 0.64053  0.108669732456
 H1 0.439142 0.738069 0.64071  0.108669732456
 H1 0.939148 0.738067 0.64071  0.108669732456
 H1 0.412111 0.887288 0.68058  0.108669732456
 H1 0.912118 0.887286 0.68059  0.108669732456
 H1 0.448414 0.098369 0.77088  0.108669732456
 H1 0.948422 0.098368 0.77088  0.108669732456
 H1 0.010309 0.211211 0.98898  0.108669732456
 H1 0.510317 0.211211 0.98898  0.108669732456
 H1 0.183192 0.6491 0.54675  0.108669732456
 H1 0.683203 0.649104 0.54675  0.108669732456
 H1 0.283124 0.849577 0.73542  0.108669732456
 H1 0.783133 0.849582 0.73542  0.108669732456
 H1 0.05759 0.87665 0.67016  0.108669732456
 H1 0.557598 0.876651 0.67016  0.108669732456
 H1 0.306054 0.055605 0.79237  0.108669732456
 H1 0.806062 0.05561 0.79237  0.108669732456
 H1 0.355603 0.243654 0.96  0.108669732456
 H1 0.855609 0.243658 0.96500  0.108669732456
 H1 0.160302 0.169426 0.06452  0.108669732456
 H1 0.660308 0.169425 0.06452  0.108669732456
 H1 0.111382 0.980662 0.89296  0.108669732456
 H1 0.611389 0.980661 0.8929  0.108669732456
 H1 0.412396 0.350466 0.16954  0.108669732456
 H1 0.912401 0.35047 0.1695  0.108669732456
 H1 0.188239 0.368852 0.15234  0.108669732456
 H1 0.688243 0.368851 0.15234  0.108669732456
 H1 0.29333 0.559359 0.34529  0.108669732456
 H1 0.793333 0.559358 0.345  0.108669732456
 H1 0.474808 0.944164 0.37938  0.108669732456
 H1 0.974818 0.944167 0.37938  0.108669732456
 H1 0.383623 0.852162 0.28002  0.108669732456
 H1 0.883633 0.852165 0.28002  0.108669732456
 H1 0.291562 0.752625 0.30997  0.108669732456
 H1 0.791572 0.752628 0.30997  0.108669732456
 H1 0.396457 0.148786 0.59452  0.108669732456
 H1 0.896465 0.148789 0.59452  0.108669732456
 H1 0.15598 0.706333 0.29090  0.108669732456
 H1 0.655989 0.706335 0.29090  0.108669732456
 H1 0.147663 0.334156 0.35949  0.108669732456
 H1 0.647672 0.334151 0.35949  0.108669732456
 H1 0.060857 0.261905 0.35930  0.108669732456
 H1 0.560865 0.261905 0.35930  0.108669732456
 H1 0.087893 0.11269 0.31943  0.108669732456
 H1 0.5879 0.112689 0.31942  0.108669732456
 H1 0.051591 0.901609 0.22913  0.108669732456
 H1 0.551598 0.901608 0.22913  0.108669732456
 H1 0.489694 0.788766 0.01103  0.108669732456
 H1 0.989703 0.788766 0.01103  0.108669732456
 C1 0.327732 0.273516 0.39927  -0.0599845175439
 C1 0.82774 0.273516 0.39927  -0.0599845175439
 C1 0.277901 0.17592 0.30642  -0.0599845175439
 C1 0.777909 0.175921 0.3064  -0.0599845175439
 C2 0.395732 0.160365 0.33739  0.163897982456
 C2 0.89574 0.160364 0.33739  0.163897982456
 C3 0.294057 0.994576 0.1679  0.102977982456
 C3 0.794065 0.994576 0.1679  0.102977982456
 C4 0.225151 0.920578 0.14675  -0.137697517544
 C4 0.725158 0.920579 0.14675  -0.137697517544
 C4 0.19729 0.814246 0.04922  -0.137697517544
 C4 0.697298 0.814247 0.04922  -0.137697517544
 C3 0.238332 0.781349 0.97263  0.102977982456
 C3 0.738339 0.78135 0.97263  0.102977982456
 C4 0.307734 0.854907 0.99499  -0.137697517544
 C4 0.807741 0.854907 0.99499  -0.137697517544
 C4 0.33551 0.961497 0.09229  -0.137697517544
 C4 0.835518 0.961497 0.09229  -0.137697517544
 C2 0.133684 0.618154 0.80803  0.163897982456
 C2 0.633691 0.618154 0.80803  0.163897982456
 C1 0.250342 0.607142 0.81466  -0.0599845175439
 C1 0.75035 0.607143 0.81466  -0.0599845175439
 C1 0.197788 0.513494 0.71982  -0.0599845175439
 C1 0.697795 0.513494 0.71982  -0.0599845175439
 C5 0.055809 0.208543 0.59819  0.645422982456
 C5 0.555816 0.208541 0.59819  0.645422982456
 C6 0.07735 0.111468 0.62742  -0.0683645175439
 C6 0.577356 0.111468 0.62742  -0.0683645175439
 C7 0.182622 0.072439 0.56288  0.224792982456
 C7 0.682629 0.072441 0.56288  0.224792982456
 C4 0.230097 0.181213 0.63886  -0.137697517544
 C4 0.730104 0.181213 0.63887  -0.137697517544
 C8 0.210597 0.985594 0.49354  -0.0372170175439
 C8 0.710606 0.985593 0.49354  -0.0372170175439
 C4 0.16302 0.873657 0.41445  -0.137697517544
 C4 0.663027 0.87366 0.4144  -0.137697517544
 C4 0.307313 0.207335 0.64958  -0.137697517544
 C4 0.807319 0.207338 0.64958  -0.137697517544
 C5 0.441553 0.583217 0.66209  0.645422982456
 C5 0.941561 0.583217 0.66209  0.645422982456
 C6 0.414535 0.690909 0.68359  -0.0683645175439
 C6 0.914542 0.690908 0.68359  -0.0683645175439
 C7 0.453558 0.876401 0.84862  0.224792982456
 C7 0.953566 0.8764 0.84862  0.224792982456
 C4 0.43896 0.933599 0.77676  -0.137697517544
 C4 0.938968 0.933597 0.77676  -0.137697517544
 C4 0.460122 0.054829 0.82865  -0.137697517544
 C4 0.96013 0.054828 0.82865  -0.137697517544
 C4 0.494473 0.118 0.9497  -0.137697517544
 C4 0.994481 0.118 0.94979  -0.137697517544
 C8 0.489937 0.938612 0.97504  -0.0372170175439
 C8 0.989946 0.938612 0.97505  -0.0372170175439
 C1 0.172268 0.726451 0.60074  -0.0599845175439
 C1 0.672278 0.726455 0.60074  -0.0599845175439
 C1 0.2221 0.824045 0.69359  -0.0599845175439
 C1 0.72211 0.824049 0.69359  -0.0599845175439
 C2 0.10427 0.839605 0.66262  0.163897982456
 C2 0.604279 0.839607 0.66262  0.163897982456
 C3 0.205946 0.0 0.83205  0.102977982456
 C3 0.705954 0.0 0.83205  0.102977982456
 C4 0.274852 0.07939 0.85326  -0.137697517544
 C4 0.77486 0.079393 0.85326  -0.137697517544
 C4 0.302713 0.185722 0.95079  -0.137697517544
 C4 0.80272 0.185725 0.95079  -0.137697517544
 C3 0.261672 0.21862 0.02738  0.102977982456
 C3 0.761678 0.218621 0.02738  0.102977982456
 C4 0.192271 0.145062 0.  -0.137697517544
 C4 0.692277 0.145062 0.  -0.137697517544
 C4 0.164494 0.038472 0.90772  -0.137697517544
 C4 0.664502 0.038472 0.90772  -0.137697517544
 C2 0.36632 0.381817 0.19198  0.163897982456
 C2 0.866325 0.38182 0.19198  0.163897982456
 C1 0.249661 0.392826 0.18535  -0.0599845175439
 C1 0.749666 0.392826 0.18535  -0.0599845175439
 C1 0.302215 0.486476 0.28019  -0.0599845175439
 C1 0.802219 0.486475 0.28019  -0.0599845175439
 C5 0.444193 0.79143 0.40182  0.645422982456
 C5 0.944201 0.791432 0.40183  0.645422982456
 C6 0.422652 0.888504 0.37259  -0.0683645175439
 C6 0.922661 0.888507 0.37260  -0.0683645175439
 C7 0.317379 0.927533 0.43713  0.224792982456
 C7 0.817389 0.927535 0.43714  0.224792982456
 C4 0.269904 0.818759 0.36115  -0.137697517544
 C4 0.769913 0.818763 0.36115  -0.137697517544
 C8 0.289405 0.014379 0.50648  -0.0372170175439
 C8 0.789412 0.014384 0.50647  -0.0372170175439
 C4 0.336982 0.126316 0.58556  -0.137697517544
 C4 0.836991 0.126316 0.58557  -0.137697517544
 C4 0.192688 0.792637 0.35043  -0.137697517544
 C4 0.692698 0.792638 0.35043  -0.137697517544
 C5 0.058446 0.416758 0.33792  0.645422982456
 C5 0.55846 0.416762 0.33792  0.645422982456
 C6 0.085464 0.309066 0.31642  -0.0683645175439
 C6 0.585474 0.309066 0.31642  -0.0683645175439
 C7 0.046445 0.123576 0.15139  0.224792982456
 C7 0.546452 0.123576 0.15139  0.224792982456
 C4 0.061043 0.066379 0.22325  -0.137697517544
 C4 0.56105 0.066379 0.22325  -0.137697517544
 C4 0.039882 0.945149 0.17136  -0.137697517544
 C4 0.539889 0.945148 0.17136  -0.137697517544
 C4 0.005531 0.881977 0.05023  -0.137697517544
 C4 0.505538 0.881977 0.05022  -0.137697517544
 C8 0.010066 0.061365 0.02497  -0.0372170175439
 C8 0.510073 0.061365 0.0249  -0.0372170175439
 N1 0.40079 0.262811 0.4179  -0.369162017544
 N1 0.900799 0.26281 0.41795  -0.369162017544
 N2 0.321636 0.104345 0.26655  0.0372979824561
 N2 0.821644 0.104345 0.26655  0.0372979824561
 N2 0.209026 0.673661 0.87104  0.0372979824561
 N2 0.709033 0.673662 0.87104  0.0372979824561
 N1 0.125507 0.521615 0.71648  -0.369162017544
 N1 0.625515 0.521616 0.71648  -0.369162017544
 N1 0.09921 0.737159 0.58207  -0.369162017544
 N1 0.59922 0.737161 0.58206  -0.369162017544
 N2 0.178366 0.895623 0.73346  0.0372979824561
 N2 0.678375 0.895625 0.73346  0.0372979824561
 N2 0.290978 0.326308 0.12897  0.0372979824561
 N2 0.790983 0.326309 0.12897  0.0372979824561
 N1 0.374496 0.478356 0.28353  -0.369162017544
 N1 0.8745 0.478358 0.28353  -0.369162017544
 O1 0.068832 0.224453 0.51305  -0.606347017544
 O1 0.568837 0.224449 0.51304  -0.606347017544
 O2 0.024378 0.268161 0.66513  -0.614302017544
 O2 0.524386 0.268162 0.6651  -0.614302017544
 O2 0.445626 0.534607 0.55717  -0.614302017544
 O2 0.945627 0.534602 0.55717  -0.614302017544
 O1 0.457767 0.54668 0.73961  -0.606347017544
 O1 0.95778 0.546683 0.73961  -0.606347017544
 O3 0.435318 0.759649 0.80884  -0.640122017544
 O3 0.935326 0.759648 0.8088  -0.640122017544
 O3 0.107341 0.037722 0.54818  -0.640122017544
 O3 0.607349 0.037723 0.54818  -0.640122017544
 O1 0.431168 0.775515 0.48696  -0.606347017544
 O1 0.931177 0.77552 0.48697  -0.606347017544
 O2 0.475623 0.731811 0.33488  -0.614302017544
 O2 0.97563 0.731811 0.33489  -0.614302017544
 O2 0.054363 0.465359 0.44283  -0.614302017544
 O2 0.554377 0.465362 0.44284  -0.614302017544
 O1 0.04224 0.453303 0.26041  -0.606347017544
 O1 0.542254 0.453307 0.26041  -0.606347017544
 O3 0.064683 0.240328 0.19117  -0.640122017544
 O3 0.56469 0.240328 0.19117  -0.640122017544
 O3 0.392659 0.962247 0.45183  -0.640122017544
 O3 0.892669 0.96225 0.45184  -0.640122017544
