#======================================================================

# CRYSTAL DATA

#----------------------------------------------------------------------

data_VESTA_phase_1


_pd_phase_name                         MOF
_cell_length_a                         21.59200
_cell_length_b                         12.58500
_cell_length_c                         17.17400
_cell_angle_alpha                      89.95800
_cell_angle_beta                       95.41400
_cell_angle_gamma                      90.03900
_symmetry_space_group_name_H-M         "P 1"
_symmetry_Int_Tables_number            1

loop_
_symmetry_equiv_pos_as_xyz
   "x, y, z"

loop_
   _atom_site_label
   _atom_site_fract_x
   _atom_site_fract_y
   _atom_site_fract_z
 _atom_site_charge
 Zn1 0.135345 0.264372 0.39733  0.805304545455
 Zn1 0.635109 0.264157 0.39984  0.805304545455
 Zn1 0.394689 0.25983 0.54035  0.805304545455
 Zn1 0.895842 0.25947 0.54266  0.805304545455
 Zn1 0.114734 0.764426 0.10024  0.805304545455
 Zn1 0.613667 0.764291 0.10247  0.805304545455
 Zn1 0.354664 0.759719 0.95696  0.805304545455
 Zn1 0.853748 0.759445 0.95972  0.805304545455
 Zn1 0.364861 0.735838 0.60013  0.805304545455
 Zn1 0.864628 0.735623 0.60263  0.805304545455
 Zn1 0.104129 0.740527 0.457  0.805304545455
 Zn1 0.605282 0.740167 0.45962  0.805304545455
 Zn1 0.386302 0.235703 0.89749  0.805304545455
 Zn1 0.885237 0.23557 0.89972  0.805304545455
 Zn1 0.146225 0.240551 0.04025  0.805304545455
 Zn1 0.645307 0.240277 0.04302  0.805304545455
 H1 0.466073 0.363427 0.79407  0.148013295455
 H1 0.966316 0.36349 0.79589  0.148013295455
 H1 0.497633 0.321149 0.70728  0.148013295455
 H1 0.997609 0.321257 0.70886  0.148013295455
 H1 0.438548 0.419512 0.70254  0.148013295455
 H1 0.938448 0.419428 0.70443  0.148013295455
 H1 0.258331 0.053086 0.64303  0.148013295455
 H1 0.75917 0.051995 0.64410  0.148013295455
 H1 0.324304 0.013635 0.59654  0.148013295455
 H1 0.825371 0.013756 0.59755  0.148013295455
 H1 0.256425 0.327078 0.33193  0.148013295455
 H1 0.756595 0.32755 0.3337  0.148013295455
 H1 0.32159 0.371072 0.39559  0.148013295455
 H1 0.822098 0.371452 0.39693  0.148013295455
 H1 0.327842 0.254755 0.33953  0.148013295455
 H1 0.827894 0.254929 0.34098  0.148013295455
 H1 0.4854 0.014554 0.318  0.148013295455
 H1 0.98447 0.015773 0.31695  0.148013295455
 H1 0.049123 0.094461 0.29340  0.148013295455
 H1 0.549922 0.093643 0.29475  0.148013295455
 H1 0.059974 0.99069 0.36378  0.148013295455
 H1 0.560855 0.990035 0.36527  0.148013295455
 H1 0.017305 0.374034 0.57496  0.148013295455
 H1 0.515827 0.373822 0.5753  0.148013295455
 H1 0.088377 0.301715 0.58688  0.148013295455
 H1 0.586872 0.301661 0.58859  0.148013295455
 H1 0.191317 0.619504 0.36118  0.148013295455
 H1 0.691414 0.618461 0.36304  0.148013295455
 H1 0.236134 0.508167 0.39583  0.148013295455
 H1 0.736272 0.50738 0.39817  0.148013295455
 H1 0.178117 0.492709 0.31611  0.148013295455
 H1 0.678259 0.491327 0.31852  0.148013295455
 H1 0.284206 0.863276 0.70346  0.148013295455
 H1 0.783664 0.863848 0.70575  0.148013295455
 H1 0.252893 0.82139 0.79060  0.148013295455
 H1 0.751869 0.821344 0.79242  0.148013295455
 H1 0.31204 0.919738 0.79472  0.148013295455
 H1 0.811109 0.919549 0.79740  0.148013295455
 H1 0.491761 0.553357 0.85586  0.148013295455
 H1 0.989836 0.551366 0.85777  0.148013295455
 H1 0.425493 0.513887 0.90182  0.148013295455
 H1 0.923641 0.513386 0.90452  0.148013295455
 H1 0.492332 0.826697 0.16678  0.148013295455
 H1 0.993893 0.828609 0.16701  0.148013295455
 H1 0.426887 0.869932 0.10326  0.148013295455
 H1 0.92822 0.872178 0.10402  0.148013295455
 H1 0.421237 0.753313 0.15931  0.148013295455
 H1 0.922499 0.756186 0.16071  0.148013295455
 H1 0.265526 0.51648 0.18200  0.148013295455
 H1 0.763926 0.515518 0.18405  0.148013295455
 H1 0.200756 0.594849 0.20523  0.148013295455
 H1 0.699058 0.593884 0.20695  0.148013295455
 H1 0.190097 0.490634 0.13526  0.148013295455
 H1 0.688658 0.489985 0.13670  0.148013295455
 H1 0.233281 0.874178 0.92348  0.148013295455
 H1 0.732615 0.873903 0.92583  0.148013295455
 H1 0.162109 0.802066 0.91113  0.148013295455
 H1 0.661441 0.801804 0.91335  0.148013295455
 H1 0.059 0.119341 0.13668  0.148013295455
 H1 0.557466 0.118919 0.13809  0.148013295455
 H1 0.014324 0.007549 0.10253  0.148013295455
 H1 0.512926 0.007273 0.10332  0.148013295455
 H1 0.072563 0.992778 0.18206  0.148013295455
 H1 0.57068 0.992206 0.18336  0.148013295455
 H1 0.033659 0.636515 0.2040  0.148013295455
 H1 0.533897 0.636563 0.20589  0.148013295455
 H1 0.002362 0.678744 0.29109  0.148013295455
 H1 0.502334 0.678836 0.29268  0.148013295455
 H1 0.061523 0.580572 0.29552  0.148013295455
 H1 0.56142 0.580475 0.29741  0.148013295455
 H1 0.240809 0.947993 0.35585  0.148013295455
 H1 0.741641 0.946896 0.35692  0.148013295455
 H1 0.17461 0.986239 0.40241  0.148013295455
 H1 0.675671 0.986354 0.40342  0.148013295455
 H1 0.243363 0.67244 0.66619  0.148013295455
 H1 0.743547 0.672924 0.66803  0.148013295455
 H1 0.177861 0.628548 0.60302  0.148013295455
 H1 0.678381 0.628931 0.60437  0.148013295455
 H1 0.172068 0.745074 0.65897  0.148013295455
 H1 0.672132 0.745253 0.66043  0.148013295455
 H1 0.015514 0.98421 0.68301  0.148013295455
 H1 0.514572 0.985439 0.68187  0.148013295455
 H1 0.45005 0.906351 0.70522  0.148013295455
 H1 0.950859 0.905529 0.70656  0.148013295455
 H1 0.439116 0.0 0.63470  0.148013295455
 H1 0.940009 0.0 0.63618  0.148013295455
 H1 0.484139 0.626174 0.42465  0.148013295455
 H1 0.982658 0.625966 0.42499  0.148013295455
 H1 0.413095 0.698337 0.41137  0.148013295455
 H1 0.911587 0.698289 0.41308  0.148013295455
 H1 0.308555 0.381535 0.63693  0.148013295455
 H1 0.808654 0.380489 0.63877  0.148013295455
 H1 0.263698 0.492617 0.60180  0.148013295455
 H1 0.763837 0.491827 0.60413  0.148013295455
 H1 0.321712 0.508668 0.68145  0.148013295455
 H1 0.821856 0.507282 0.68385  0.148013295455
 H1 0.216308 0.136153 0.29422  0.148013295455
 H1 0.715761 0.136722 0.2965  0.148013295455
 H1 0.248102 0.178657 0.20755  0.148013295455
 H1 0.747073 0.178612 0.20937  0.148013295455
 H1 0.188863 0.080452 0.20257  0.148013295455
 H1 0.687927 0.080261 0.20525  0.148013295455
 H1 0.010132 0.448628 0.14219  0.148013295455
 H1 0.508197 0.446623 0.14411  0.148013295455
 H1 0.076328 0.48661 0.09544  0.148013295455
 H1 0.574465 0.486102 0.09814  0.148013295455
 H1 0.00608 0.171386 0.8329  0.148013295455
 H1 0.507642 0.173292 0.83319  0.148013295455
 H1 0.071752 0.127813 0.89595  0.148013295455
 H1 0.573086 0.130057 0.89671  0.148013295455
 H1 0.077475 0.243806 0.83925  0.148013295455
 H1 0.578737 0.246677 0.84066  0.148013295455
 H1 0.236038 0.484484 0.81592  0.148013295455
 H1 0.73444 0.483514 0.8179  0.148013295455
 H1 0.300908 0.406125 0.79302  0.148013295455
 H1 0.799209 0.405143 0.79473  0.148013295455
 H1 0.311305 0.510021 0.8632  0.148013295455
 H1 0.80987 0.509359 0.86470  0.148013295455
 H1 0.267363 0.126095 0.07413  0.148013295455
 H1 0.766693 0.12582 0.07648  0.148013295455
 H1 0.338536 0.198196 0.08661  0.148013295455
 H1 0.837864 0.197935 0.08883  0.148013295455
 H1 0.442505 0.881071 0.8618  0.148013295455
 H1 0.940972 0.880654 0.86329  0.148013295455
 H1 0.487048 0.992713 0.89664  0.148013295455
 H1 0.985648 0.992447 0.89743  0.148013295455
 H1 0.429295 0.007786 0.81660  0.148013295455
 H1 0.927407 0.007215 0.81790  0.148013295455
 C1 0.45472 0.345583 0.73194  -0.452507954545
 C1 0.954793 0.345579 0.7338  -0.452507954545
 C2 0.406668 0.260702 0.72229  0.445804545455
 C2 0.906799 0.260585 0.72431  0.445804545455
 C2 0.338272 0.148526 0.67262  0.445804545455
 C2 0.838697 0.148169 0.67422  0.445804545455
 C3 0.298121 0.083411 0.61450  -0.380505454545
 C3 0.798896 0.08302 0.61579  -0.380505454545
 C2 0.27442 0.142214 0.54189  0.445804545455
 C2 0.77508 0.142315 0.54345  0.445804545455
 C2 0.274364 0.235694 0.43683  0.445804545455
 C2 0.774824 0.23635 0.43868  0.445804545455
 C1 0.295757 0.300962 0.37231  -0.452507954545
 C1 0.796051 0.301408 0.37394  -0.452507954545
 C1 0.027954 0.053578 0.34079  -0.452507954545
 C1 0.528738 0.052648 0.34207  -0.452507954545
 C2 0.014873 0.12947 0.40345  0.445804545455
 C2 0.5152 0.12857 0.40449  0.445804545455
 C2 0.026554 0.253044 0.49020  0.445804545455
 C2 0.526046 0.252552 0.49106  0.445804545455
 C3 0.053896 0.338441 0.54337  -0.380505454545
 C3 0.552827 0.338219 0.54446  -0.380505454545
 C2 0.084458 0.426243 0.50232  0.445804545455
 C2 0.583898 0.426039 0.50400  0.445804545455
 C2 0.142733 0.508995 0.42750  0.445804545455
 C2 0.642815 0.50844 0.42976  0.445804545455
 C1 0.189506 0.53385 0.37198  -0.452507954545
 C1 0.68964 0.532897 0.37423  -0.452507954545
 C1 0.295724 0.8457 0.76561  -0.452507954545
 C1 0.794863 0.845772 0.76787  -0.452507954545
 C2 0.343729 0.76084 0.77537  0.445804545455
 C2 0.842753 0.760728 0.77766  0.445804545455
 C2 0.41197 0.648783 0.82558  0.445804545455
 C2 0.910548 0.647943 0.82778  0.445804545455
 C3 0.451831 0.583678 0.88404  -0.380505454545
 C3 0.950213 0.582536 0.88614  -0.380505454545
 C2 0.475193 0.642393 0.95681  0.445804545455
 C2 0.974257 0.641885 0.95826  0.445804545455
 C2 0.474689 0.735405 0.06190  0.445804545455
 C2 0.975074 0.736578 0.06268  0.445804545455
 C1 0.453058 0.800142 0.12646  -0.452507954545
 C1 0.954243 0.802251 0.12724  -0.452507954545
 C1 0.221988 0.55386 0.15800  -0.452507954545
 C1 0.720505 0.553058 0.15982  -0.452507954545
 C2 0.235039 0.629544 0.09511  0.445804545455
 C2 0.733872 0.628977 0.09722  0.445804545455
 C2 0.223599 0.753024 0.00811  0.445804545455
 C2 0.722742 0.752747 0.01045  0.445804545455
 C3 0.19651 0.838584 0.95483  -0.380505454545
 C3 0.695786 0.838353 0.95711  -0.380505454545
 C2 0.165926 0.926388 0.99572  0.445804545455
 C2 0.665105 0.926159 0.99787  0.445804545455
 C2 0.107613 0.008991 0.07045  0.445804545455
 C2 0.606474 0.008694 0.07221  0.445804545455
 C1 0.060943 0.033674 0.12609  -0.452507954545
 C1 0.55944 0.033282 0.12739  -0.452507954545
 C1 0.045179 0.654423 0.26614  -0.452507954545
 C1 0.545248 0.654404 0.26801  -0.452507954545
 C2 0.093174 0.739415 0.27565  0.445804545455
 C2 0.5933 0.739286 0.2776  0.445804545455
 C2 0.161279 0.851826 0.32574  0.445804545455
 C2 0.661697 0.851461 0.32734  0.445804545455
 C3 0.201082 0.916972 0.38416  -0.380505454545
 C3 0.701852 0.916575 0.38546  -0.380505454545
 C2 0.224896 0.857676 0.45651  0.445804545455
 C2 0.725554 0.857774 0.45807  0.445804545455
 C2 0.225145 0.763642 0.56128  0.445804545455
 C2 0.72561 0.764303 0.56313  0.445804545455
 C1 0.203911 0.698587 0.62601  -0.452507954545
 C1 0.704216 0.699041 0.62765  -0.452507954545
 C1 0.471234 0.947346 0.65790  -0.452507954545
 C1 0.972027 0.946411 0.6591  -0.452507954545
 C2 0.48477 0.871425 0.59548  0.445804545455
 C2 0.985102 0.870521 0.59651  0.445804545455
 C2 0.473923 0.747444 0.50890  0.445804545455
 C2 0.973414 0.746951 0.50975  0.445804545455
 C3 0.44714 0.661778 0.4555  -0.380505454545
 C3 0.946069 0.661559 0.45658  -0.380505454545
 C2 0.416069 0.573957 0.49597  0.445804545455
 C2 0.915507 0.573756 0.49763  0.445804545455
 C2 0.357154 0.491556 0.57021  0.445804545455
 C2 0.857235 0.491001 0.5724  0.445804545455
 C1 0.310329 0.467099 0.62574  -0.452507954545
 C1 0.810465 0.466143 0.62797  -0.452507954545
 C1 0.205108 0.154229 0.23210  -0.452507954545
 C1 0.704243 0.154299 0.23436  -0.452507954545
 C2 0.157218 0.239271 0.22231  0.445804545455
 C2 0.656237 0.239157 0.22460  0.445804545455
 C2 0.089421 0.352055 0.17219  0.445804545455
 C2 0.587993 0.351208 0.17438  0.445804545455
 C3 0.049756 0.417459 0.11383  -0.380505454545
 C3 0.54813 0.416308 0.11593  -0.380505454545
 C2 0.025714 0.358108 0.0417  0.445804545455
 C2 0.524773 0.357591 0.04316  0.445804545455
 C2 0.024898 0.263414 0.93728  0.445804545455
 C2 0.525282 0.264582 0.93806  0.445804545455
 C1 0.045729 0.197742 0.87273  -0.452507954545
 C1 0.546916 0.199847 0.87351  -0.452507954545
 C1 0.27946 0.446946 0.84014  -0.452507954545
 C1 0.777979 0.446133 0.8419  -0.452507954545
 C2 0.266097 0.371022 0.90274  0.445804545455
 C2 0.764929 0.37045 0.90485  0.445804545455
 C2 0.277229 0.247248 0.9895  0.445804545455
 C2 0.776371 0.246972 0.99185  0.445804545455
 C3 0.304189 0.161644 0.04285  -0.380505454545
 C3 0.803462 0.161414 0.04513  -0.380505454545
 C2 0.334869 0.073837 0.00209  0.445804545455
 C2 0.834047 0.073609 0.00425  0.445804545455
 C2 0.3935 0.991299 0.92775  0.445804545455
 C2 0.892359 0.991005 0.9295  0.445804545455
 C1 0.440533 0.966709 0.87257  -0.452507954545
 C1 0.939028 0.966321 0.87387  -0.452507954545
 N1 0.056948 0.203547 0.43497  -0.544030454545
 N1 0.557047 0.202539 0.43666  -0.544030454545
 N2 0.461574 0.131629 0.43638  -0.373440454545
 N2 0.961668 0.132125 0.43639  -0.373440454545
 N3 0.468908 0.211361 0.49206  -0.326082954545
 N3 0.969519 0.211652 0.49223  -0.326082954545
 N1 0.126248 0.409629 0.44813  -0.544030454545
 N1 0.625819 0.409241 0.45004  -0.544030454545
 N2 0.074883 0.528445 0.51550  -0.373440454545
 N2 0.574759 0.528301 0.51749  -0.373440454545
 N3 0.112249 0.581465 0.46687  -0.326082954545
 N3 0.612559 0.581083 0.46923  -0.326082954545
 N3 0.215812 0.202834 0.44355  -0.326082954545
 N3 0.716249 0.203489 0.44548  -0.326082954545
 N2 0.215564 0.14279 0.51148  -0.373440454545
 N2 0.716167 0.143035 0.51325  -0.373440454545
 N1 0.312659 0.19874 0.49768  -0.544030454545
 N1 0.813265 0.199146 0.49936  -0.544030454545
 N1 0.382879 0.219215 0.65285  -0.544030454545
 N1 0.883625 0.21846 0.65480  -0.544030454545
 N2 0.334712 0.143948 0.74935  -0.373440454545
 N2 0.834414 0.144349 0.75082  -0.373440454545
 N3 0.378781 0.216093 0.78097  -0.326082954545
 N3 0.878295 0.216645 0.78276  -0.326082954545
 N1 0.192991 0.703338 0.06315  -0.544030454545
 N1 0.691996 0.703064 0.06532  -0.544030454545
 N2 0.288373 0.632436 0.06253  -0.373440454545
 N2 0.78728 0.631717 0.06479  -0.373440454545
 N3 0.280671 0.711877 0.00656  -0.326082954545
 N3 0.779775 0.711365 0.00897  -0.326082954545
 N1 0.124083 0.909706 0.04984  -0.544030454545
 N1 0.623012 0.909428 0.05168  -0.544030454545
 N2 0.175551 0.028606 0.98251  -0.373440454545
 N2 0.674828 0.028397 0.98481  -0.373440454545
 N3 0.138139 0.081525 0.03106  -0.326082954545
 N3 0.637203 0.081279 0.03313  -0.326082954545
 N3 0.033562 0.703642 0.05553  -0.326082954545
 N3 0.533316 0.70263 0.05571  -0.326082954545
 N2 0.03329 0.642803 0.98799  -0.373440454545
 N2 0.533921 0.642868 0.98773  -0.373440454545
 N1 0.436687 0.69874 0.  -0.544030454545
 N1 0.936329 0.698966 0.  -0.544030454545
 N1 0.367104 0.719096 0.84494  -0.544030454545
 N1 0.865839 0.718524 0.84721  -0.544030454545
 N2 0.416022 0.644595 0.74894  -0.373440454545
 N2 0.914835 0.644083 0.75119  -0.373440454545
 N3 0.372065 0.716684 0.71696  -0.326082954545
 N3 0.871168 0.71665 0.71925  -0.326082954545
 N1 0.442923 0.797455 0.5633  -0.544030454545
 N1 0.943025 0.796445 0.56499  -0.544030454545
 N2 0.038304 0.867868 0.56356  -0.373440454545
 N2 0.538395 0.868368 0.56359  -0.373440454545
 N3 0.030449 0.788343 0.50772  -0.326082954545
 N3 0.53106 0.788636 0.50791  -0.326082954545
 N1 0.37415 0.590756 0.54993  -0.544030454545
 N1 0.873722 0.590367 0.55183  -0.544030454545
 N2 0.425208 0.471696 0.48247  -0.373440454545
 N2 0.925079 0.471554 0.48444  -0.373440454545
 N3 0.387409 0.418913 0.53073  -0.326082954545
 N3 0.887715 0.418532 0.53308  -0.326082954545
 N3 0.283722 0.796499 0.55448  -0.326082954545
 N3 0.784162 0.797158 0.55641  -0.326082954545
 N2 0.283808 0.856952 0.4867  -0.373440454545
 N2 0.784411 0.857196 0.48847  -0.373440454545
 N1 0.186708 0.800847 0.50060  -0.544030454545
 N1 0.687315 0.801254 0.50228  -0.544030454545
 N1 0.116349 0.781539 0.34516  -0.544030454545
 N1 0.61709 0.780772 0.34711  -0.544030454545
 N2 0.165564 0.855644 0.24913  -0.373440454545
 N2 0.665255 0.85604 0.2506  -0.373440454545
 N3 0.12168 0.783352 0.21719  -0.326082954545
 N3 0.621185 0.783896 0.21898  -0.326082954545
 N1 0.307973 0.296933 0.93464  -0.544030454545
 N1 0.806977 0.296656 0.9368  -0.544030454545
 N2 0.212691 0.368282 0.93518  -0.373440454545
 N2 0.711596 0.367559 0.93744  -0.373440454545
 N3 0.220197 0.288632 0.99100  -0.326082954545
 N3 0.719299 0.28812 0.99340  -0.326082954545
 N1 0.37696 0.090566 0.94828  -0.544030454545
 N1 0.875887 0.09029 0.95012  -0.544030454545
 N2 0.325148 0.9716 0.01515  -0.373440454545
 N2 0.824424 0.971392 0.01746  -0.373440454545
 N3 0.362773 0.918716 0.96683  -0.326082954545
 N3 0.861836 0.918472 0.96891  -0.326082954545
 N3 0.466655 0.297357 0.94425  -0.326082954545
 N3 0.966411 0.296351 0.94443  -0.326082954545
 N2 0.466046 0.357117 0.01223  -0.373440454545
 N2 0.966681 0.357191 0.01197  -0.373440454545
 N1 0.063642 0.301026 0.99752  -0.544030454545
 N1 0.563281 0.301245 0.99931  -0.544030454545
 N1 0.134132 0.281475 0.15276  -0.544030454545
 N1 0.632861 0.280899 0.15503  -0.544030454545
 N2 0.085134 0.355914 0.24877  -0.373440454545
 N2 0.58394 0.355397 0.25103  -0.373440454545
 N3 0.128801 0.283349 0.28072  -0.326082954545
 N3 0.6279 0.283312 0.28301  -0.326082954545
