#======================================================================

# CRYSTAL DATA

#----------------------------------------------------------------------

data_VESTA_phase_1


_pd_phase_name                         MOF
_cell_length_a                         14.42000
_cell_length_b                         16.43300
_cell_length_c                         18.99100
_cell_angle_alpha                      115.84200
_cell_angle_beta                       102.84800
_cell_angle_gamma                      89.99300
_symmetry_space_group_name_H-M         "P 1"
_symmetry_Int_Tables_number            1

loop_
_symmetry_equiv_pos_as_xyz
   "x, y, z"

loop_
   _atom_site_label
   _atom_site_fract_x
   _atom_site_fract_y
   _atom_site_fract_z
 _atom_site_charge
 Zn1 0.746322 0.073548 0.63551  0.925551291667
 Zn1 0.800381 0.148221 0.80849  0.925551291667
 Zn1 0.246194 0.56121 0.63569  0.925551291667
 Zn1 0.300347 0.660749 0.80850  0.925551291667
 Zn1 0.753798 0.438749 0.36433  0.925551291667
 Zn1 0.699643 0.339211 0.19152  0.925551291667
 Zn1 0.25367 0.926411 0.36450  0.925551291667
 Zn1 0.199612 0.851741 0.19153  0.925551291667
 H1 0.05676 0.017506 0.82861  0.107937026961
 H1 0.164887 0.897416 0.82806  0.107937026961
 H1 0.043579 0.738207 0.57414  0.107937026961
 H1 0.935659 0.858628 0.57482  0.107937026961
 H1 0.50378 0.485975 0.86998  0.107937026961
 H1 0.392405 0.331352 0.61430  0.107937026961
 H1 0.502247 0.213143 0.61394  0.107937026961
 H1 0.61309 0.366914 0.8698  0.107937026961
 H1 0.856149 0.032286 0.88790  0.107937026961
 H1 0.951877 0.04816 0.02132  0.107937026961
 H1 0.942586 0.338499 0.11590  0.107937026961
 H1 0.848192 0.311122 0.97806  0.107937026961
 H1 0.178049 0.143621 0.25333  0.107937026961
 H1 0.015318 0.417216 0.35488  0.107937026961
 H1 0.081466 0.53278 0.4978  0.107937026961
 H1 0.320342 0.398813 0.52263  0.107937026961
 H1 0.268114 0.27933 0.37978  0.107937026961
 H1 0.556739 0.811607 0.82815  0.107937026961
 H1 0.664889 0.930945 0.82746  0.107937026961
 H1 0.543477 0.834176 0.57354  0.107937026961
 H1 0.435683 0.714442 0.57430  0.107937026961
 H1 0.004953 0.384128 0.86990  0.107937026961
 H1 0.891811 0.282553 0.61455  0.107937026961
 H1 0.001244 0.400655 0.61418  0.107937026961
 H1 0.114098 0.503162 0.86974  0.107937026961
 H1 0.357846 0.856521 0.88888  0.107937026961
 H1 0.453599 0.974087 0.02289  0.107937026961
 H1 0.441409 0.777865 0.11578  0.107937026961
 H1 0.347087 0.667408 0.9775  0.107937026961
 H1 0.679195 0.110203 0.25526  0.107937026961
 H1 0.515028 0.937952 0.35506  0.107937026961
 H1 0.581221 0.964652 0.49752  0.107937026961
 H1 0.821563 0.122261 0.52302  0.107937026961
 H1 0.769316 0.099447 0.38061  0.107937026961
 H1 0.443245 0.188362 0.17187  0.107937026961
 H1 0.335093 0.069023 0.17255  0.107937026961
 H1 0.456515 0.16577 0.42647  0.107937026961
 H1 0.564313 0.285505 0.4257  0.107937026961
 H1 0.995032 0.615822 0.13011  0.107937026961
 H1 0.108166 0.717408 0.38547  0.107937026961
 H1 0.998738 0.599304 0.38583  0.107937026961
 H1 0.885893 0.496786 0.13027  0.107937026961
 H1 0.642119 0.143437 0.11113  0.107937026961
 H1 0.546367 0.025871 0.97712  0.107937026961
 H1 0.558574 0.222085 0.88423  0.107937026961
 H1 0.652893 0.332543 0.0225  0.107937026961
 H1 0.320785 0.889745 0.74475  0.107937026961
 H1 0.484954 0.061995 0.64495  0.107937026961
 H1 0.418761 0.035299 0.50249  0.107937026961
 H1 0.178416 0.877692 0.47699  0.107937026961
 H1 0.230663 0.900502 0.619  0.107937026961
 H1 0.943215 0.982441 0.17140  0.107937026961
 H1 0.835085 0.102528 0.1719  0.107937026961
 H1 0.956395 0.261744 0.42586  0.107937026961
 H1 0.064316 0.141325 0.42519  0.107937026961
 H1 0.496209 0.513986 0.13003  0.107937026961
 H1 0.607561 0.668593 0.3857  0.107937026961
 H1 0.497717 0.786802 0.3860  0.107937026961
 H1 0.386895 0.633046 0.1301  0.107937026961
 H1 0.143823 0.967667 0.11211  0.107937026961
 H1 0.048093 0.95179 0.97869  0.107937026961
 H1 0.057402 0.661453 0.88411  0.107937026961
 H1 0.151796 0.688832 0.02195  0.107937026961
 H1 0.82193 0.856326 0.74668  0.107937026961
 H1 0.98466 0.58273 0.6451  0.107937026961
 H1 0.91851 0.467167 0.50220  0.107937026961
 H1 0.679637 0.601136 0.47738  0.107937026961
 H1 0.731865 0.720618 0.62024  0.107937026961
 C1 0.168339 0.735096 0.70309  0.682684416667
 C1 0.915931 0.010399 0.7053  0.682684416667
 C2 0.989333 0.944607 0.70198  -0.0776962083333
 C3 0.055579 0.956637 0.77305  -0.110959958333
 C3 0.115227 0.890084 0.77272  -0.110959958333
 C2 0.109852 0.810193 0.7013  -0.0776962083333
 C3 0.046718 0.800112 0.62941  -0.110959958333
 C3 0.986904 0.8668 0.62973  -0.110959958333
 C1 0.380005 0.489151 0.74073  0.682684416667
 C2 0.442003 0.416069 0.74206  -0.0776962083333
 C3 0.503287 0.425383 0.81438  -0.110959958333
 C3 0.440786 0.338422 0.67002  -0.110959958333
 C1 0.633008 0.213645 0.73974  0.682684416667
 C2 0.563679 0.282346 0.74195  -0.0776962083333
 C3 0.50115 0.272495 0.66990  -0.110959958333
 C3 0.56353 0.359065 0.81430  -0.110959958333
 C4 0.876827 0.098762 0.93975  0.146940791667
 C3 0.930625 0.107618 0.01343  -0.110959958333
 C5 0.957952 0.195089 0.07694  0.145583791667
 C3 0.925655 0.270203 0.06646  -0.110959958333
 C4 0.87226 0.254729 0.99043  0.146940791667
 C5 0.101596 0.269694 0.2712  0.145583791667
 C4 0.126972 0.180493 0.23093  0.146940791667
 C2 0.136606 0.338248 0.35485  -0.0776962083333
 C3 0.083897 0.411037 0.38927  -0.110959958333
 C4 0.119619 0.474954 0.46881  0.146940791667
 C4 0.253814 0.400026 0.48264  0.146940791667
 C3 0.223442 0.333477 0.40331  -0.110959958333
 C1 0.668356 0.967276 0.70244  0.682684416667
 C1 0.415881 0.694466 0.70505  0.682684416667
 C2 0.489302 0.75674 0.70152  -0.0776962083333
 C3 0.555555 0.816372 0.77254  -0.110959958333
 C3 0.615236 0.882505 0.77214  -0.110959958333
 C2 0.609825 0.890418 0.70070  -0.0776962083333
 C3 0.546669 0.828012 0.62884  -0.110959958333
 C3 0.486888 0.761657 0.62922  -0.110959958333
 C1 0.880437 0.251381 0.74082  0.682684416667
 C2 0.942355 0.325829 0.74214  -0.0776962083333
 C3 0.004014 0.389047 0.81438  -0.110959958333
 C3 0.940519 0.331361 0.67020  -0.110959958333
 C1 0.132886 0.526184 0.73983  0.682684416667
 C2 0.063645 0.459648 0.7420  -0.0776962083333
 C3 0.000676 0.397287 0.6700  -0.110959958333
 C3 0.064146 0.455329 0.81428  -0.110959958333
 C4 0.377884 0.841793 0.94050  0.146940791667
 C3 0.431703 0.906593 0.01445  -0.110959958333
 C5 0.458286 0.882467 0.07762  0.145583791667
 C3 0.425161 0.796783 0.06658  -0.110959958333
 C4 0.371799 0.736247 0.99032  0.146940791667
 C5 0.602059 0.0 0.27206  0.145583791667
 C4 0.627821 0.050887 0.23242  0.146940791667
 C2 0.637019 0.016398 0.35544  -0.0776962083333
 C3 0.583943 0.978082 0.38949  -0.110959958333
 C4 0.619674 0.993395 0.46878  0.146940791667
 C4 0.754696 0.08149 0.48300  0.146940791667
 C3 0.724341 0.069006 0.40393  -0.110959958333
 C1 0.331627 0.032686 0.29757  0.682684416667
 C1 0.584118 0.30549 0.2949  0.682684416667
 C2 0.51069 0.24322 0.29850  -0.0776962083333
 C3 0.444433 0.183592 0.22748  -0.110959958333
 C3 0.384747 0.11746 0.22788  -0.110959958333
 C2 0.39017 0.109534 0.29931  -0.0776962083333
 C3 0.45332 0.171941 0.3711  -0.110959958333
 C3 0.513107 0.238294 0.37080  -0.110959958333
 C1 0.119547 0.748579 0.25919  0.682684416667
 C2 0.05763 0.674126 0.25787  -0.0776962083333
 C3 0.99597 0.610908 0.18563  -0.110959958333
 C3 0.059461 0.668599 0.32981  -0.110959958333
 C1 0.867109 0.473766 0.26018  0.682684416667
 C2 0.936332 0.540316 0.25799  -0.0776962083333
 C3 0.999309 0.60267 0.32994  -0.110959958333
 C3 0.935845 0.544622 0.18573  -0.110959958333
 C4 0.622084 0.158165 0.05952  0.146940791667
 C3 0.568266 0.093364 0.98556  -0.110959958333
 C5 0.541688 0.117487 0.92239  0.145583791667
 C3 0.574818 0.203169 0.93343  -0.110959958333
 C4 0.628178 0.263706 0.  0.146940791667
 C5 0.39792 0.998312 0.72795  0.145583791667
 C4 0.372158 0.949062 0.76759  0.146940791667
 C2 0.362962 0.983549 0.64457  -0.0776962083333
 C3 0.416038 0.021866 0.61052  -0.110959958333
 C4 0.380309 0.0 0.53123  0.146940791667
 C4 0.245284 0.918461 0.51701  0.146940791667
 C3 0.275638 0.930944 0.59608  -0.110959958333
 C1 0.831645 0.264857 0.29692  0.682684416667
 C1 0.084049 0.989552 0.29467  0.682684416667
 C2 0.0 0.055346 0.29802  -0.0776962083333
 C3 0.944394 0.043309 0.22696  -0.110959958333
 C3 0.884747 0.109862 0.22728  -0.110959958333
 C2 0.890121 0.189754 0.29870  -0.0776962083333
 C3 0.953257 0.199838 0.37060  -0.110959958333
 C3 0.0 0.133149 0.37028  -0.110959958333
 C1 0.619981 0.510808 0.25928  0.682684416667
 C2 0.55797 0.583882 0.25795  -0.0776962083333
 C3 0.496698 0.574575 0.18563  -0.110959958333
 C3 0.559186 0.661527 0.32999  -0.110959958333
 C1 0.366977 0.78631 0.26027  0.682684416667
 C2 0.436299 0.717605 0.25806  -0.0776962083333
 C3 0.49882 0.727453 0.33011  -0.110959958333
 C3 0.436453 0.640891 0.18571  -0.110959958333
 C4 0.123149 0.901191 0.06026  0.146940791667
 C3 0.06935 0.892333 0.9865  -0.110959958333
 C5 0.042028 0.804861 0.92307  0.145583791667
 C3 0.074329 0.729749 0.93356  -0.110959958333
 C4 0.127725 0.745224 0.  0.146940791667
 C5 0.898385 0.730254 0.72881  0.145583791667
 C4 0.873007 0.819454 0.76908  0.146940791667
 C2 0.863371 0.661698 0.64516  -0.0776962083333
 C3 0.916082 0.58891 0.61074  -0.110959958333
 C4 0.880358 0.524992 0.53121  0.146940791667
 C4 0.746164 0.599921 0.51737  0.146940791667
 C3 0.776537 0.666472 0.59670  -0.110959958333
 N1 0.849322 0.171036 0.92740  -0.308101208333
 N1 0.202994 0.469878 0.51535  -0.308101208333
 N2 0.020151 0.206951 0.15015  0.310268791667
 N3 0.033837 0.285029 0.2183  -0.312168708333
 N3 0.075134 0.14143 0.15471  -0.312168708333
 N1 0.349635 0.757037 0.9276  -0.308101208333
 N1 0.703478 0.044484 0.51537  -0.308101208333
 N2 0.520578 0.943735 0.15105  0.310268791667
 N3 0.534008 0.93357 0.21888  -0.312168708333
 N3 0.575974 0.013976 0.15622  -0.312168708333
 N1 0.650339 0.242918 0.07241  -0.308101208333
 N1 0.296504 0.955468 0.48464  -0.308101208333
 N2 0.479397 0.056218 0.84896  0.310268791667
 N3 0.465968 0.066382 0.78113  -0.312168708333
 N3 0.424002 0.985976 0.84379  -0.312168708333
 N1 0.15066 0.828918 0.07261  -0.308101208333
 N1 0.796986 0.530072 0.48466  -0.308101208333
 N2 0.979831 0.792999 0.84987  0.310268791667
 N3 0.966143 0.714919 0.78164  -0.312168708333
 N3 0.924846 0.858519 0.84530  -0.312168708333
 O1 0.164783 0.666266 0.63601  -0.599046208333
 O1 0.216757 0.746446 0.77229  -0.599046208333
 O1 0.911035 0.068311 0.77540  -0.599046208333
 O1 0.862233 0.000749 0.63854  -0.599046208333
 O1 0.378777 0.555403 0.80817  -0.599046208333
 O1 0.333615 0.479142 0.6713  -0.599046208333
 O1 0.683938 0.221051 0.80695  -0.599046208333
 O1 0.636538 0.153213 0.67013  -0.599046208333
 O1 0.664135 0.968971 0.6354  -0.599046208333
 O1 0.717472 0.02526 0.77155  -0.599046208333
 O1 0.410476 0.70795 0.77521  -0.599046208333
 O1 0.362711 0.636119 0.63834  -0.599046208333
 O1 0.878599 0.253474 0.80830  -0.599046208333
 O1 0.834767 0.191085 0.67143  -0.599046208333
 O1 0.184199 0.58609 0.80704  -0.599046208333
 O1 0.135957 0.516974 0.67027  -0.599046208333
 O1 0.335861 0.030985 0.36456  -0.599046208333
 O1 0.282523 0.974694 0.22846  -0.599046208333
 O1 0.589518 0.292018 0.2248  -0.599046208333
 O1 0.637291 0.363832 0.36168  -0.599046208333
 O1 0.121395 0.746486 0.19172  -0.599046208333
 O1 0.165213 0.808876 0.3285  -0.599046208333
 O1 0.815792 0.413862 0.19297  -0.599046208333
 O1 0.86402 0.482995 0.32975  -0.599046208333
 O1 0.835216 0.333693 0.36  -0.599046208333
 O1 0.783212 0.253501 0.22771  -0.599046208333
 O1 0.088952 0.931647 0.22461  -0.599046208333
 O1 0.137758 0.999213 0.3614  -0.599046208333
 O1 0.621224 0.444564 0.19184  -0.599046208333
 O1 0.666354 0.520807 0.32863  -0.599046208333
 O1 0.316042 0.778897 0.19306  -0.599046208333
 O1 0.363454 0.846754 0.32987  -0.599046208333
