#======================================================================

# CRYSTAL DATA

#----------------------------------------------------------------------

data_VESTA_phase_1


_pd_phase_name                         MOF
_cell_length_a                         15.37000
_cell_length_b                         20.10400
_cell_length_c                         17.69700
_cell_angle_alpha                      90.00000
_cell_angle_beta                       89.98700
_cell_angle_gamma                      89.99900
_symmetry_space_group_name_H-M         "P 1"
_symmetry_Int_Tables_number            1

loop_
_symmetry_equiv_pos_as_xyz
   "x, y, z"

loop_
   _atom_site_label
   _atom_site_fract_x
   _atom_site_fract_y
   _atom_site_fract_z
 _atom_site_charge
 Zn1 0.23775 0.375004 0.73720  0.565395625
 Zn1 0.237751 0.875011 0.73720  0.565395625
 Zn1 0.737751 0.375004 0.73720  0.565395625
 Zn1 0.737752 0.875011 0.73720  0.565395625
 Zn1 0.011466 0.125002 0.23725  0.565395625
 Zn1 0.011467 0.625008 0.23725  0.565395625
 Zn1 0.511466 0.125002 0.23725  0.565395625
 Zn1 0.511467 0.625008 0.23725  0.565395625
 Zn1 0.262243 0.125002 0.26279  0.565395625
 Zn1 0.262244 0.625008 0.26279  0.565395625
 Zn1 0.762244 0.125002 0.26279  0.565395625
 Zn1 0.762245 0.625008 0.26279  0.565395625
 Zn1 0.488528 0.375004 0.76273  0.565395625
 Zn1 0.488529 0.875011 0.76273  0.565395625
 Zn1 0.988529 0.375004 0.76273  0.565395625
 Zn1 0.988529 0.875011 0.76273  0.565395625
 Zn2 0.314938 0.125002 0.92159  0.782565625
 Zn2 0.314939 0.625008 0.92159  0.782565625
 Zn2 0.814939 0.125002 0.92159  0.782565625
 Zn2 0.81494 0.625008 0.92159  0.782565625
 Zn2 0.43619 0.375004 0.42169  0.782565625
 Zn2 0.436191 0.87501 0.42169  0.782565625
 Zn2 0.93619 0.375004 0.42169  0.782565625
 Zn2 0.936191 0.87501 0.42169  0.782565625
 Zn2 0.185056 0.375004 0.07840  0.782565625
 Zn2 0.185056 0.87501 0.07840  0.782565625
 Zn2 0.685056 0.375004 0.07840  0.782565625
 Zn2 0.685057 0.87501 0.07840  0.782565625
 Zn2 0.063804 0.125002 0.57830  0.782565625
 Zn2 0.063805 0.625008 0.57830  0.782565625
 Zn2 0.563804 0.125002 0.57830  0.782565625
 Zn2 0.563805 0.625008 0.57830  0.782565625
 H1 0.484177 0.018586 0.87178  0.0769739583333
 H1 0.484178 0.518592 0.87178  0.0769739583333
 H1 0.984178 0.018586 0.87178  0.0769739583333
 H1 0.984179 0.518592 0.87178  0.0769739583333
 H1 0.216486 0.021494 0.82352  0.0769739583333
 H1 0.216487 0.521501 0.82352  0.0769739583333
 H1 0.716487 0.021494 0.82352  0.0769739583333
 H1 0.716488 0.521501 0.82352  0.0769739583333
 H1 0.266284 0.481143 0.37208  0.0769739583333
 H1 0.266285 0.981149 0.37208  0.0769739583333
 H1 0.766285 0.481143 0.37208  0.0769739583333
 H1 0.766286 0.981149 0.37208  0.0769739583333
 H1 0.033954 0.478745 0.32351  0.0769739583333
 H1 0.033955 0.978752 0.32351  0.0769739583333
 H1 0.533955 0.478745 0.32351  0.0769739583333
 H1 0.533956 0.978752 0.32351  0.0769739583333
 H1 0.015813 0.26859 0.12821  0.0769739583333
 H1 0.015813 0.768597 0.12821  0.0769739583333
 H1 0.515813 0.26859 0.12821  0.0769739583333
 H1 0.515814 0.768597 0.12821  0.0769739583333
 H1 0.283502 0.271496 0.17647  0.0769739583333
 H1 0.283503 0.771502 0.17647  0.0769739583333
 H1 0.783502 0.271496 0.17647  0.0769739583333
 H1 0.783503 0.771502 0.17647  0.0769739583333
 H1 0.233713 0.231138 0.62791  0.0769739583333
 H1 0.233714 0.731144 0.62791  0.0769739583333
 H1 0.733713 0.231138 0.62791  0.0769739583333
 H1 0.733714 0.731144 0.62791  0.0769739583333
 H1 0.466044 0.228743 0.67649  0.0769739583333
 H1 0.466045 0.72875 0.67649  0.0769739583333
 H1 0.966045 0.228744 0.67649  0.0769739583333
 H1 0.966046 0.72875 0.67649  0.0769739583333
 H1 0.015817 0.481421 0.12821  0.0769739583333
 H1 0.015817 0.981427 0.12821  0.0769739583333
 H1 0.515817 0.481421 0.12821  0.0769739583333
 H1 0.515818 0.981427 0.12821  0.0769739583333
 H1 0.283507 0.478511 0.1764  0.0769739583333
 H1 0.283508 0.978518 0.1764  0.0769739583333
 H1 0.783508 0.478511 0.1764  0.0769739583333
 H1 0.783509 0.978518 0.1764  0.0769739583333
 H1 0.233709 0.018864 0.62791  0.0769739583333
 H1 0.23371 0.51887 0.62791  0.0769739583333
 H1 0.73371 0.018864 0.62791  0.0769739583333
 H1 0.733711 0.51887 0.62791  0.0769739583333
 H1 0.466039 0.02126 0.67648  0.0769739583333
 H1 0.46604 0.521267 0.67648  0.0769739583333
 H1 0.96604 0.02126 0.67648  0.0769739583333
 H1 0.966041 0.521267 0.67648  0.0769739583333
 H1 0.484181 0.231416 0.87178  0.0769739583333
 H1 0.484182 0.731422 0.87178  0.0769739583333
 H1 0.984182 0.231416 0.87178  0.0769739583333
 H1 0.984182 0.731422 0.87178  0.0769739583333
 H1 0.216492 0.22851 0.82352  0.0769739583333
 H1 0.216493 0.728516 0.82352  0.0769739583333
 H1 0.716493 0.22851 0.82352  0.0769739583333
 H1 0.716494 0.728516 0.82352  0.0769739583333
 H1 0.266281 0.268868 0.37208  0.0769739583333
 H1 0.266282 0.768875 0.37208  0.0769739583333
 H1 0.766281 0.268869 0.37208  0.0769739583333
 H1 0.766282 0.768875 0.37208  0.0769739583333
 H1 0.033949 0.271262 0.32350  0.0769739583333
 H1 0.03395 0.771269 0.32350  0.0769739583333
 H1 0.53395 0.271263 0.32350  0.0769739583333
 H1 0.533951 0.771269 0.32350  0.0769739583333
 H1 0.270048 0.375006 0.92237  0.0769739583333
 H1 0.270049 0.875012 0.92237  0.0769739583333
 H1 0.770048 0.375006 0.92237  0.0769739583333
 H1 0.770049 0.875012 0.92237  0.0769739583333
 H1 0.000377 0.375004 0.96230  0.0769739583333
 H1 0.000378 0.87501 0.96230  0.0769739583333
 H1 0.500378 0.375004 0.96230  0.0769739583333
 H1 0.500379 0.87501 0.96230  0.0769739583333
 H1 0.479843 0.125001 0.42211  0.0769739583333
 H1 0.479844 0.625007 0.42211  0.0769739583333
 H1 0.979844 0.125001 0.42211  0.0769739583333
 H1 0.979845 0.625007 0.42211  0.0769739583333
 H1 0.24935 0.125003 0.46266  0.0769739583333
 H1 0.249351 0.625009 0.46266  0.0769739583333
 H1 0.749351 0.125003 0.46266  0.0769739583333
 H1 0.749352 0.625009 0.46266  0.0769739583333
 H1 0.229946 0.125 0.07762  0.0769739583333
 H1 0.229947 0.625006 0.07762  0.0769739583333
 H1 0.729947 0.125 0.07762  0.0769739583333
 H1 0.729947 0.625006 0.07762  0.0769739583333
 H1 0.499616 0.125003 0.03769  0.0769739583333
 H1 0.499617 0.625009 0.03769  0.0769739583333
 H1 0.999617 0.125003 0.03769  0.0769739583333
 H1 0.999618 0.625009 0.03769  0.0769739583333
 H1 0.02015 0.375005 0.57788  0.0769739583333
 H1 0.020151 0.875011 0.57788  0.0769739583333
 H1 0.520151 0.375005 0.57788  0.0769739583333
 H1 0.520152 0.875011 0.57788  0.0769739583333
 H1 0.250643 0.375004 0.53733  0.0769739583333
 H1 0.250644 0.87501 0.53733  0.0769739583333
 H1 0.750644 0.375004 0.53733  0.0769739583333
 H1 0.750645 0.87501 0.53733  0.0769739583333
 C1 0.420197 0.005581 0.85041  0.230230625
 C1 0.420198 0.505587 0.85041  0.230230625
 C1 0.920198 0.005581 0.85041  0.230230625
 C1 0.920199 0.505587 0.85041  0.230230625
 C1 0.284425 0.007055 0.8247  0.230230625
 C1 0.284426 0.507061 0.8247  0.230230625
 C1 0.784426 0.007055 0.8247  0.230230625
 C1 0.784427 0.507061 0.8247  0.230230625
 C1 0.330193 0.494244 0.35061  0.230230625
 C1 0.330194 0.99425 0.35061  0.230230625
 C1 0.830194 0.494244 0.35061  0.230230625
 C1 0.830194 0.99425 0.35061  0.230230625
 C1 0.465961 0.493024 0.32483  0.230230625
 C1 0.465961 0.99303 0.32483  0.230230625
 C1 0.965961 0.493024 0.32483  0.230230625
 C1 0.965962 0.99303 0.32483  0.230230625
 C1 0.079792 0.255585 0.14958  0.230230625
 C1 0.079793 0.755591 0.14958  0.230230625
 C1 0.579793 0.255585 0.14958  0.230230625
 C1 0.579794 0.755591 0.14958  0.230230625
 C1 0.215563 0.257057 0.17522  0.230230625
 C1 0.215564 0.757063 0.17522  0.230230625
 C1 0.715564 0.257057 0.17522  0.230230625
 C1 0.715565 0.757063 0.17522  0.230230625
 C1 0.169805 0.244239 0.64938  0.230230625
 C1 0.169806 0.744245 0.64938  0.230230625
 C1 0.669805 0.244239 0.64938  0.230230625
 C1 0.669806 0.744245 0.64938  0.230230625
 C1 0.034037 0.243022 0.67516  0.230230625
 C1 0.034038 0.743028 0.67516  0.230230625
 C1 0.534038 0.243022 0.67516  0.230230625
 C1 0.534039 0.743028 0.67516  0.230230625
 C1 0.079797 0.494426 0.14958  0.230230625
 C1 0.079797 0.994432 0.14958  0.230230625
 C1 0.579797 0.494425 0.14958  0.230230625
 C1 0.579798 0.994432 0.14958  0.230230625
 C1 0.215568 0.492951 0.17522  0.230230625
 C1 0.215569 0.992957 0.17522  0.230230625
 C1 0.715569 0.492951 0.17522  0.230230625
 C1 0.71557 0.992957 0.17522  0.230230625
 C1 0.169801 0.005763 0.64938  0.230230625
 C1 0.169802 0.505769 0.64938  0.230230625
 C1 0.669801 0.005763 0.64938  0.230230625
 C1 0.669802 0.505769 0.64938  0.230230625
 C1 0.034033 0.006982 0.67516  0.230230625
 C1 0.034034 0.506988 0.67516  0.230230625
 C1 0.534034 0.006982 0.67516  0.230230625
 C1 0.534034 0.506988 0.67516  0.230230625
 C1 0.420202 0.244421 0.85041  0.230230625
 C1 0.420203 0.744428 0.85041  0.230230625
 C1 0.920202 0.244421 0.85041  0.230230625
 C1 0.920203 0.744428 0.85041  0.230230625
 C1 0.28443 0.242949 0.8247  0.230230625
 C1 0.284431 0.742955 0.8247  0.230230625
 C1 0.784431 0.242949 0.8247  0.230230625
 C1 0.784432 0.742955 0.8247  0.230230625
 C1 0.330189 0.255767 0.35061  0.230230625
 C1 0.33019 0.755773 0.35061  0.230230625
 C1 0.830189 0.255767 0.35061  0.230230625
 C1 0.83019 0.755773 0.35061  0.230230625
 C1 0.465956 0.256984 0.32483  0.230230625
 C1 0.465957 0.75699 0.32483  0.230230625
 C1 0.965957 0.256984 0.32483  0.230230625
 C1 0.965958 0.75699 0.32483  0.230230625
 C1 0.200296 0.375006 0.91329  0.230230625
 C1 0.200297 0.875012 0.91329  0.230230625
 C1 0.700296 0.375006 0.91329  0.230230625
 C1 0.700297 0.875012 0.91329  0.230230625
 C1 0.06334 0.375004 0.93435  0.230230625
 C1 0.063341 0.87501 0.93435  0.230230625
 C1 0.56334 0.375004 0.93435  0.230230625
 C1 0.563341 0.87501 0.93435  0.230230625
 C1 0.049629 0.125 0.41320  0.230230625
 C1 0.04963 0.625006 0.41320  0.230230625
 C1 0.549629 0.125 0.41320  0.230230625
 C1 0.54963 0.625007 0.41320  0.230230625
 C1 0.186487 0.125002 0.43456  0.230230625
 C1 0.186488 0.625009 0.43456  0.230230625
 C1 0.686487 0.125002 0.43456  0.230230625
 C1 0.686488 0.625009 0.43456  0.230230625
 C1 0.299698 0.125 0.08670  0.230230625
 C1 0.299699 0.625006 0.08670  0.230230625
 C1 0.799698 0.125 0.08670  0.230230625
 C1 0.799699 0.625006 0.08670  0.230230625
 C1 0.436654 0.125002 0.06564  0.230230625
 C1 0.436655 0.625008 0.06564  0.230230625
 C1 0.936654 0.125002 0.06564  0.230230625
 C1 0.936655 0.625008 0.06564  0.230230625
 C1 0.450365 0.375006 0.58679  0.230230625
 C1 0.450365 0.875012 0.58679  0.230230625
 C1 0.950365 0.375006 0.58679  0.230230625
 C1 0.950366 0.875012 0.58679  0.230230625
 C1 0.313507 0.375004 0.56543  0.230230625
 C1 0.313508 0.87501 0.56543  0.230230625
 C1 0.813507 0.375004 0.56543  0.230230625
 C1 0.813508 0.87501 0.56543  0.230230625
 N1 0.316668 0.453091 0.7915  -0.216521041667
 N1 0.316669 0.953098 0.7915  -0.216521041667
 N1 0.816669 0.453091 0.7915  -0.216521041667
 N1 0.81667 0.953098 0.7915  -0.216521041667
 N2 0.346673 0.041783 0.86247  -0.442376041667
 N2 0.346674 0.541789 0.86247  -0.442376041667
 N2 0.846674 0.041783 0.86247  -0.442376041667
 N2 0.846675 0.541789 0.86247  -0.442376041667
 N1 0.404319 0.451969 0.80817  -0.216521041667
 N1 0.40432 0.951975 0.80817  -0.216521041667
 N1 0.90432 0.451969 0.80817  -0.216521041667
 N1 0.904321 0.951975 0.80817  -0.216521041667
 N1 0.433486 0.046902 0.29165  -0.216521041667
 N1 0.433487 0.546908 0.29165  -0.216521041667
 N1 0.933487 0.046902 0.29165  -0.216521041667
 N1 0.933488 0.546908 0.29165  -0.216521041667
 N2 0.403869 0.458201 0.36261  -0.442376041667
 N2 0.40387 0.958207 0.36261  -0.442376041667
 N2 0.90387 0.458201 0.36261  -0.442376041667
 N2 0.903871 0.958208 0.36261  -0.442376041667
 N1 0.345865 0.04788 0.30833  -0.216521041667
 N1 0.345866 0.547886 0.30833  -0.216521041667
 N1 0.845865 0.04788 0.30833  -0.216521041667
 N1 0.845866 0.547886 0.30833  -0.216521041667
 N1 0.183321 0.203088 0.20841  -0.216521041667
 N1 0.183322 0.703094 0.20841  -0.216521041667
 N1 0.683322 0.203088 0.20841  -0.216521041667
 N1 0.683323 0.703094 0.20841  -0.216521041667
 N2 0.153315 0.291786 0.13752  -0.442376041667
 N2 0.153316 0.791793 0.13752  -0.442376041667
 N2 0.653316 0.291786 0.13752  -0.442376041667
 N2 0.653317 0.791793 0.13752  -0.442376041667
 N1 0.095671 0.201966 0.19181  -0.216521041667
 N1 0.095672 0.701973 0.19181  -0.216521041667
 N1 0.595672 0.201966 0.19181  -0.216521041667
 N1 0.595673 0.701973 0.19181  -0.216521041667
 N1 0.066511 0.296905 0.70834  -0.216521041667
 N1 0.066512 0.796911 0.70834  -0.216521041667
 N1 0.566512 0.296905 0.70834  -0.216521041667
 N1 0.566513 0.796911 0.70834  -0.216521041667
 N2 0.096129 0.208198 0.63738  -0.442376041667
 N2 0.09613 0.708204 0.63738  -0.442376041667
 N2 0.596129 0.208198 0.63738  -0.442376041667
 N2 0.59613 0.708204 0.63738  -0.442376041667
 N1 0.154132 0.297882 0.69166  -0.216521041667
 N1 0.154133 0.797888 0.69166  -0.216521041667
 N1 0.654133 0.297882 0.69166  -0.216521041667
 N1 0.654133 0.797888 0.69166  -0.216521041667
 N1 0.183325 0.046915 0.20841  -0.216521041667
 N1 0.183326 0.546921 0.20841  -0.216521041667
 N1 0.683326 0.046915 0.20841  -0.216521041667
 N1 0.683327 0.546921 0.20841  -0.216521041667
 N2 0.15332 0.458223 0.13752  -0.442376041667
 N2 0.153321 0.958229 0.13752  -0.442376041667
 N2 0.653321 0.458223 0.13752  -0.442376041667
 N2 0.653322 0.958229 0.13752  -0.442376041667
 N1 0.095675 0.048037 0.19182  -0.216521041667
 N1 0.095675 0.548043 0.19182  -0.216521041667
 N1 0.595675 0.048037 0.19182  -0.216521041667
 N1 0.595676 0.548043 0.19182  -0.216521041667
 N1 0.066507 0.453104 0.70834  -0.216521041667
 N1 0.066508 0.95311 0.70834  -0.216521041667
 N1 0.566508 0.453104 0.70834  -0.216521041667
 N1 0.566509 0.95311 0.70834  -0.216521041667
 N2 0.096124 0.041805 0.63738  -0.442376041667
 N2 0.096125 0.541811 0.63738  -0.442376041667
 N2 0.596125 0.041805 0.63738  -0.442376041667
 N2 0.596126 0.541811 0.63738  -0.442376041667
 N1 0.154129 0.452127 0.69166  -0.216521041667
 N1 0.15413 0.952133 0.69166  -0.216521041667
 N1 0.654129 0.452127 0.69166  -0.216521041667
 N1 0.65413 0.952133 0.69166  -0.216521041667
 N1 0.316672 0.296918 0.79157  -0.216521041667
 N1 0.316673 0.796924 0.79157  -0.216521041667
 N1 0.816673 0.296918 0.79157  -0.216521041667
 N1 0.816674 0.796924 0.79157  -0.216521041667
 N2 0.346678 0.20822 0.86247  -0.442376041667
 N2 0.346679 0.708226 0.86247  -0.442376041667
 N2 0.846679 0.20822 0.86247  -0.442376041667
 N2 0.84668 0.708226 0.86247  -0.442376041667
 N1 0.404322 0.29804 0.8081  -0.216521041667
 N1 0.404323 0.798046 0.80817  -0.216521041667
 N1 0.904323 0.29804 0.80817  -0.216521041667
 N1 0.904324 0.798046 0.80817  -0.216521041667
 N1 0.433483 0.203101 0.29165  -0.216521041667
 N1 0.433484 0.703107 0.29165  -0.216521041667
 N1 0.933483 0.203101 0.29165  -0.216521041667
 N1 0.933484 0.703107 0.29165  -0.216521041667
 N2 0.403865 0.291808 0.36261  -0.442376041667
 N2 0.403866 0.791815 0.36261  -0.442376041667
 N2 0.903865 0.291808 0.36261  -0.442376041667
 N2 0.903866 0.791815 0.36261  -0.442376041667
 N1 0.345862 0.202124 0.30833  -0.216521041667
 N1 0.345863 0.702131 0.30833  -0.216521041667
 N1 0.845862 0.202124 0.30833  -0.216521041667
 N1 0.845863 0.702131 0.30833  -0.216521041667
 N1 0.162044 0.375005 0.84600  -0.216521041667
 N1 0.162045 0.875011 0.84600  -0.216521041667
 N1 0.662045 0.375005 0.84600  -0.216521041667
 N1 0.662045 0.875011 0.84600  -0.216521041667
 N1 0.073651 0.375004 0.85945  -0.216521041667
 N1 0.073652 0.875011 0.85945  -0.216521041667
 N1 0.573651 0.375005 0.85945  -0.216521041667
 N1 0.573652 0.875011 0.85945  -0.216521041667
 N2 0.141471 0.375005 0.97069  -0.442376041667
 N2 0.141472 0.875011 0.97069  -0.442376041667
 N2 0.641472 0.375005 0.97069  -0.442376041667
 N2 0.641472 0.875011 0.97069  -0.442376041667
 N1 0.088089 0.125001 0.34599  -0.216521041667
 N1 0.088089 0.625007 0.34599  -0.216521041667
 N1 0.588089 0.125001 0.34599  -0.216521041667
 N1 0.58809 0.625008 0.34599  -0.216521041667
 N1 0.17646 0.125002 0.35962  -0.216521041667
 N1 0.176461 0.625008 0.35962  -0.216521041667
 N1 0.67646 0.125002 0.35962  -0.216521041667
 N1 0.676461 0.625008 0.35962  -0.216521041667
 N2 0.108219 0.125002 0.47075  -0.442376041667
 N2 0.10822 0.625008 0.47075  -0.442376041667
 N2 0.60822 0.125002 0.47075  -0.442376041667
 N2 0.608221 0.625008 0.47075  -0.442376041667
 N1 0.33795 0.125001 0.15399  -0.216521041667
 N1 0.337951 0.625007 0.15399  -0.216521041667
 N1 0.83795 0.125001 0.15399  -0.216521041667
 N1 0.837951 0.625007 0.15399  -0.216521041667
 N1 0.426343 0.125002 0.14054  -0.216521041667
 N1 0.426344 0.625008 0.14054  -0.216521041667
 N1 0.926343 0.125002 0.14054  -0.216521041667
 N1 0.926344 0.625008 0.14054  -0.216521041667
 N2 0.358523 0.125001 0.02930  -0.442376041667
 N2 0.358524 0.625007 0.02930  -0.442376041667
 N2 0.858523 0.125001 0.02930  -0.442376041667
 N2 0.858524 0.625007 0.02930  -0.442376041667
 N1 0.411905 0.375005 0.65400  -0.216521041667
 N1 0.411906 0.875011 0.65400  -0.216521041667
 N1 0.911906 0.375005 0.65400  -0.216521041667
 N1 0.911907 0.875011 0.65400  -0.216521041667
 N1 0.323534 0.375004 0.64037  -0.216521041667
 N1 0.323535 0.875011 0.64037  -0.216521041667
 N1 0.823534 0.375004 0.64037  -0.216521041667
 N1 0.823535 0.87501 0.64037  -0.216521041667
 N2 0.391774 0.375004 0.52924  -0.442376041667
 N2 0.391775 0.875011 0.52924  -0.442376041667
 N2 0.891775 0.375005 0.52924  -0.442376041667
 N2 0.891776 0.875011 0.52924  -0.442376041667
 Cl1 0.166429 0.125007 0.92698  -0.564934375
 Cl1 0.16643 0.625013 0.92698  -0.564934375
 Cl1 0.666429 0.125007 0.92698  -0.564934375
 Cl1 0.66643 0.625013 0.92698  -0.564934375
 Cl1 0.084494 0.375 0.42706  -0.564934375
 Cl1 0.084495 0.875006 0.42706  -0.564934375
 Cl1 0.584495 0.375 0.42706  -0.564934375
 Cl1 0.584496 0.875006 0.42706  -0.564934375
 Cl1 0.333565 0.374999 0.07301  -0.564934375
 Cl1 0.333566 0.875006 0.07301  -0.564934375
 Cl1 0.833566 0.374999 0.07301  -0.564934375
 Cl1 0.833566 0.875006 0.07301  -0.564934375
 Cl1 0.415499 0.125006 0.57292  -0.564934375
 Cl1 0.4155 0.625013 0.57292  -0.564934375
 Cl1 0.9155 0.125006 0.57292  -0.564934375
 Cl1 0.915501 0.625013 0.57292  -0.564934375
