#======================================================================

# CRYSTAL DATA

#----------------------------------------------------------------------

data_VESTA_phase_1


_pd_phase_name                         MOF
_cell_length_a                         14.82800
_cell_length_b                         14.81600
_cell_length_c                         16.77500
_cell_angle_alpha                      102.67500
_cell_angle_beta                       102.68400
_cell_angle_gamma                      115.83900
_symmetry_space_group_name_H-M         "P 1"
_symmetry_Int_Tables_number            1

loop_
_symmetry_equiv_pos_as_xyz
   "x, y, z"

loop_
   _atom_site_label
   _atom_site_fract_x
   _atom_site_fract_y
   _atom_site_fract_z
 _atom_site_charge
 Zn1 0.525905 0.924934 0.92119  1.05500477912
 Zn1 0.07463 0.473414 0.57820  1.05500477912
 Zn1 0.474093 0.075088 0.07879  1.05500477912
 Zn1 0.925367 0.526609 0.42178  1.05500477912
 Zn1 0.328889 0.67073 0.7498  1.05500477912
 Zn1 0.671108 0.329292 0.25011  1.05500477912
 H1 0.477326 0.537827 0.83414  0.110919570783
 H1 0.578789 0.442471 0.84376  0.110919570783
 H1 0.874399 0.742467 0.92363  0.110919570783
 H1 0.771003 0.83721 0.91382  0.110919570783
 H1 0.133671 0.603259 0.91597  0.110919570783
 H1 0.986465 0.56721 0.97568  0.110919570783
 H1 0.789128 0.55709 0.73939  0.110919570783
 H1 0.935615 0.591021 0.67946  0.110919570783
 H1 0.612386 0.33415 0.04027  0.110919570783
 H1 0.698 0.502963 0.01101  0.110919570783
 H1 0.8039 0.356143 0.82989  0.110919570783
 H1 0.723286 0.189577 0.86405  0.110919570783
 H1 0.461596 0.522682 0.66508  0.110919570783
 H1 0.557274 0.421527 0.65570  0.110919570783
 H1 0.257893 0.125314 0.57594  0.110919570783
 H1 0.16282 0.228405 0.58547  0.110919570783
 H1 0.396556 0.866153 0.58379  0.110919570783
 H1 0.432849 0.013548 0.5241  0.110919570783
 H1 0.443551 0.211304 0.76054  0.110919570783
 H1 0.40929 0.064584 0.82042  0.110919570783
 H1 0.666378 0.38816 0.45988  0.110919570783
 H1 0.497585 0.302551 0.48898  0.110919570783
 H1 0.643826 0.196105 0.67002  0.110919570783
 H1 0.810313 0.276574 0.63590  0.110919570783
 H1 0.522671 0.462196 0.16585  0.110919570783
 H1 0.421209 0.557551 0.15623  0.110919570783
 H1 0.125598 0.257555 0.07636  0.110919570783
 H1 0.228994 0.162813 0.08616  0.110919570783
 H1 0.866327 0.396764 0.08401  0.110919570783
 H1 0.013533 0.432813 0.02431  0.110919570783
 H1 0.21087 0.442933 0.26060  0.110919570783
 H1 0.064382 0.409002 0.32053  0.110919570783
 H1 0.387612 0.665873 0.95972  0.110919570783
 H1 0.301997 0.49706 0.98898  0.110919570783
 H1 0.196097 0.64388 0.17010  0.110919570783
 H1 0.276711 0.810446 0.13594  0.110919570783
 H1 0.538401 0.477341 0.33491  0.110919570783
 H1 0.442723 0.578496 0.34428  0.110919570783
 H1 0.742104 0.874709 0.42405  0.110919570783
 H1 0.837177 0.771618 0.41451  0.110919570783
 H1 0.603443 0.13387 0.41620  0.110919570783
 H1 0.567148 0.986475 0.47586  0.110919570783
 H1 0.556446 0.788719 0.23945  0.110919570783
 H1 0.590708 0.935438 0.17957  0.110919570783
 H1 0.33362 0.611862 0.54010  0.110919570783
 H1 0.502412 0.697472 0.51100  0.110919570783
 H1 0.356171 0.803918 0.32996  0.110919570783
 H1 0.189685 0.723449 0.36408  0.110919570783
 C1 0.553182 0.747465 0.86776  0.715894779116
 C2 0.617388 0.693707 0.87416  -0.190338554217
 C3 0.564426 0.582285 0.85486  -0.100082929217
 C3 0.621292 0.529062 0.86013  -0.100082929217
 C4 0.733739 0.586221 0.88581  0.19040811245
 C3 0.787305 0.697793 0.90415  -0.100082929217
 C3 0.729621 0.750665 0.89850  -0.100082929217
 C1 0.127739 0.612867 0.75530  0.715894779116
 C2 0.043181 0.597893 0.79350  -0.190338554217
 C3 0.057698 0.592087 0.87748  -0.100082929217
 C3 0.97576 0.572168 0.91072  -0.100082929217
 C4 0.87832 0.558567 0.86075  0.19040811245
 C3 0.864781 0.567558 0.77797  -0.100082929217
 C3 0.946443 0.586503 0.74452  -0.100082929217
 C1 0.601829 0.147464 0.96563  0.715894779116
 C2 0.659873 0.249993 0.95216  -0.190338554217
 C3 0.653776 0.339325 0.99383  -0.100082929217
 C3 0.702027 0.433718 0.9776  -0.100082929217
 C4 0.753734 0.439942 0.91623  0.19040811245
 C3 0.763284 0.351851 0.87687  -0.100082929217
 C3 0.717712 0.258586 0.89555  -0.100082929217
 C1 0.252049 0.446315 0.63151  0.715894779116
 C2 0.306008 0.382301 0.62512  -0.190338554217
 C3 0.417345 0.435517 0.64443  -0.100082929217
 C3 0.470747 0.378822 0.63929  -0.100082929217
 C4 0.413854 0.266301 0.61376  0.19040811245
 C3 0.302353 0.212471 0.59533  -0.100082929217
 C3 0.249304 0.269986 0.60084  -0.100082929217
 C1 0.386813 0.872075 0.74440  0.715894779116
 C2 0.402069 0.956806 0.70628  -0.190338554217
 C3 0.407868 0.942247 0.62230  -0.100082929217
 C3 0.427931 0.024276 0.58909  -0.100082929217
 C4 0.441697 0.121852 0.63909  0.19040811245
 C3 0.432864 0.135494 0.7219  -0.100082929217
 C3 0.413738 0.053711 0.75533  -0.100082929217
 C1 0.852655 0.398189 0.53443  0.715894779116
 C2 0.750189 0.340293 0.54789  -0.190338554217
 C3 0.661071 0.346638 0.5062  -0.100082929217
 C3 0.566698 0.298406 0.52236  -0.100082929217
 C4 0.560321 0.246536 0.58370  0.19040811245
 C3 0.648235 0.236818 0.62308  -0.100082929217
 C3 0.741454 0.282316 0.60443  -0.100082929217
 C1 0.446815 0.252558 0.13222  0.715894779116
 C2 0.382609 0.306316 0.12582  -0.190338554217
 C3 0.435571 0.417738 0.14512  -0.100082929217
 C3 0.378705 0.470961 0.13985  -0.100082929217
 C4 0.266258 0.413802 0.11418  0.19040811245
 C3 0.212692 0.302229 0.09583  -0.100082929217
 C3 0.270377 0.249358 0.10149  -0.100082929217
 C1 0.872258 0.387155 0.24468  0.715894779116
 C2 0.956816 0.40213 0.20649  -0.190338554217
 C3 0.9423 0.407936 0.12251  -0.100082929217
 C3 0.024237 0.427855 0.08927  -0.100082929217
 C4 0.121677 0.441456 0.13923  0.19040811245
 C3 0.135216 0.432465 0.22202  -0.100082929217
 C3 0.053554 0.41352 0.25546  -0.100082929217
 C1 0.398168 0.852559 0.03436  0.715894779116
 C2 0.340124 0.750029 0.0478  -0.190338554217
 C3 0.346222 0.660697 0.0061  -0.100082929217
 C3 0.29797 0.566305 0.02234  -0.100082929217
 C4 0.246263 0.560081 0.08375  0.19040811245
 C3 0.236713 0.648172 0.12312  -0.100082929217
 C3 0.282286 0.741437 0.10444  -0.100082929217
 C1 0.747949 0.553708 0.36848  0.715894779116
 C2 0.693989 0.617722 0.37487  -0.190338554217
 C3 0.582652 0.564506 0.35556  -0.100082929217
 C3 0.52925 0.6212 0.36069  -0.100082929217
 C4 0.586144 0.733722 0.38623  0.19040811245
 C3 0.697644 0.787552 0.40466  -0.100082929217
 C3 0.750693 0.730036 0.3991  -0.100082929217
 C1 0.613177 0.127945 0.2555  0.715894779116
 C2 0.597931 0.043218 0.29371  -0.190338554217
 C3 0.592129 0.057775 0.37769  -0.100082929217
 C3 0.572069 0.975748 0.41089  -0.100082929217
 C4 0.558295 0.878169 0.36089  0.19040811245
 C3 0.567136 0.86453 0.27806  -0.100082929217
 C3 0.586259 0.946311 0.24465  -0.100082929217
 C1 0.147343 0.601834 0.46555  0.715894779116
 C2 0.249808 0.659729 0.45210  -0.190338554217
 C3 0.338927 0.653386 0.49373  -0.100082929217
 C3 0.433299 0.701617 0.47762  -0.100082929217
 C4 0.439677 0.753488 0.41629  0.19040811245
 C3 0.351762 0.763204 0.37691  -0.100082929217
 C3 0.258544 0.717707 0.39555  -0.100082929217
 N1 0.79243 0.532383 0.89309  -0.166388554217
 N1 0.467893 0.207796 0.60673  -0.166388554217
 N1 0.207567 0.46764 0.10690  -0.166388554217
 N1 0.532105 0.792227 0.39326  -0.166388554217
 O1 0.451206 0.687723 0.84248  -0.615675220884
 O1 0.602722 0.849824 0.88920  -0.615675220884
 O1 0.21979 0.636715 0.80534  -0.615675220884
 O1 0.106084 0.601953 0.6742  -0.615675220884
 O1 0.525812 0.135514 0.99443  -0.615675220884
 O1 0.627819 0.076202 0.94459  -0.615675220884
 O1 0.311546 0.548405 0.65690  -0.615675220884
 O1 0.149755 0.396515 0.60997  -0.615675220884
 O1 0.363004 0.779965 0.69440  -0.615675220884
 O1 0.397448 0.893661 0.82540  -0.615675220884
 O1 0.865008 0.474668 0.50606  -0.615675220884
 O1 0.923519 0.371648 0.55507  -0.615675220884
 O1 0.548791 0.312299 0.1575  -0.615675220884
 O1 0.397275 0.150199 0.11078  -0.615675220884
 O1 0.780207 0.363307 0.19464  -0.615675220884
 O1 0.893913 0.39807 0.32573  -0.615675220884
 O1 0.474185 0.864509 0.00555  -0.615675220884
 O1 0.372178 0.92382 0.05540  -0.615675220884
 O1 0.688452 0.451618 0.3430  -0.615675220884
 O1 0.850243 0.603508 0.39001  -0.615675220884
 O1 0.636995 0.220058 0.30559  -0.615675220884
 O1 0.602551 0.106362 0.17459  -0.615675220884
 O1 0.134989 0.525355 0.49393  -0.615675220884
 O1 0.076478 0.628375 0.44492  -0.615675220884
