#======================================================================

# CRYSTAL DATA

#----------------------------------------------------------------------

data_VESTA_phase_1


_pd_phase_name                         MOF
_cell_length_a                         21.40900
_cell_length_b                         12.77500
_cell_length_c                         12.76000
_cell_angle_alpha                      106.89600
_cell_angle_beta                       94.45000
_cell_angle_gamma                      85.41800
_symmetry_space_group_name_H-M         "P 1"
_symmetry_Int_Tables_number            1

loop_
_symmetry_equiv_pos_as_xyz
   "x, y, z"

loop_
   _atom_site_label
   _atom_site_fract_x
   _atom_site_fract_y
   _atom_site_fract_z
 _atom_site_charge
 Zn1 0.450732 0.577926 0.98142  0.932401985294
 Zn1 0.950323 0.577862 0.98129  0.932401985294
 Zn1 0.298831 0.98094 0.57794  0.932401985294
 Zn1 0.799753 0.981409 0.57790  0.932401985294
 Zn1 0.049752 0.422115 0.01873  0.932401985294
 Zn1 0.549288 0.422084 0.01855  0.932401985294
 Zn1 0.200273 0.018564 0.42211  0.932401985294
 Zn1 0.7012 0.019028 0.42205  0.932401985294
 H1 0.381149 0.398798 0.65391  0.105177401961
 H1 0.882053 0.398783 0.65396  0.105177401961
 H1 0.357757 0.271241 0.47116  0.105177401961
 H1 0.858502 0.270949 0.47142  0.105177401961
 H1 0.035105 0.088652 0.49910  0.105177401961
 H1 0.534505 0.089301 0.4986  0.105177401961
 H1 0.05627 0.215341 0.68481  0.105177401961
 H1 0.555433 0.215515 0.68474  0.105177401961
 H1 0.360095 0.171813 0.3020  0.105177401961
 H1 0.861291 0.172096 0.30193  0.105177401961
 H1 0.382448 0.032439 0.23596  0.105177401961
 H1 0.88317 0.032429 0.23606  0.105177401961
 H1 0.373953 0.663965 0.81396  0.105177401961
 H1 0.873992 0.664637 0.81313  0.105177401961
 H1 0.289981 0.81321 0.81423  0.105177401961
 H1 0.789991 0.813823 0.81346  0.105177401961
 H1 0.279583 0.860214 0.16195  0.105177401961
 H1 0.779111 0.859804 0.16095  0.105177401961
 H1 0.364167 0.710453 0.14727  0.105177401961
 H1 0.863715 0.710136 0.14619  0.105177401961
 H1 0.202245 0.931234 0.918  0.105177401961
 H1 0.701907 0.931227 0.918  0.105177401961
 H1 0.203366 0.960745 0.0643  0.105177401961
 H1 0.703063 0.960711 0.0635  0.105177401961
 H1 0.368398 0.653446 0.39879  0.105177401961
 H1 0.868695 0.652693 0.39860  0.105177401961
 H1 0.391968 0.470688 0.27128  0.105177401961
 H1 0.891686 0.469891 0.27072  0.105177401961
 H1 0.215505 0.49874 0.08913  0.105177401961
 H1 0.715142 0.499719 0.08945  0.105177401961
 H1 0.19434 0.6847 0.21545  0.105177401961
 H1 0.694597 0.685752 0.21600  0.105177401961
 H1 0.389533 0.301325 0.17210  0.105177401961
 H1 0.889273 0.301093 0.17049  0.105177401961
 H1 0.367838 0.235868 0.03227  0.105177401961
 H1 0.867041 0.236148 0.03077  0.105177401961
 H1 0.375523 0.813511 0.66530  0.105177401961
 H1 0.876184 0.813681 0.66475  0.105177401961
 H1 0.459537 0.814014 0.81430  0.105177401961
 H1 0.959979 0.814058 0.81411  0.105177401961
 H1 0.470066 0.160932 0.85928  0.105177401961
 H1 0.970574 0.16107 0.85960  0.105177401961
 H1 0.385399 0.146086 0.70991  0.105177401961
 H1 0.886154 0.146305 0.70978  0.105177401961
 H1 0.048005 0.918442 0.93099  0.105177401961
 H1 0.547805 0.918408 0.93045  0.105177401961
 H1 0.046682 0.063758 0.9603  0.105177401961
 H1 0.546453 0.063727 0.95975  0.105177401961
 H1 0.117937 0.601157 0.34606  0.105177401961
 H1 0.618937 0.601237 0.34607  0.105177401961
 H1 0.141517 0.729035 0.52857  0.105177401961
 H1 0.642293 0.728747 0.52885  0.105177401961
 H1 0.465546 0.910695 0.501  0.105177401961
 H1 0.964934 0.911389 0.50088  0.105177401961
 H1 0.444623 0.78444 0.3152  0.105177401961
 H1 0.943788 0.784754 0.31514  0.105177401961
 H1 0.13873 0.827896 0.69810  0.105177401961
 H1 0.639983 0.828173 0.69793  0.105177401961
 H1 0.11684 0.967551 0.76395  0.105177401961
 H1 0.61765 0.967578 0.76401  0.105177401961
 H1 0.126055 0.335328 0.18683  0.105177401961
 H1 0.626065 0.336067 0.18601  0.105177401961
 H1 0.210076 0.186174 0.18651  0.105177401961
 H1 0.709973 0.186708 0.1857  0.105177401961
 H1 0.22094 0.140159 0.83903  0.105177401961
 H1 0.720398 0.139763 0.83800  0.105177401961
 H1 0.136311 0.28979 0.85376  0.105177401961
 H1 0.635887 0.28965 0.85273  0.105177401961
 H1 0.298119 0.068701 0.08189  0.105177401961
 H1 0.79775 0.068786 0.0810  0.105177401961
 H1 0.296978 0.039231 0.9364  0.105177401961
 H1 0.796615 0.039263 0.93557  0.105177401961
 H1 0.131333 0.347213 0.60135  0.105177401961
 H1 0.63159 0.346526 0.60135  0.105177401961
 H1 0.108316 0.530005 0.72924  0.105177401961
 H1 0.608079 0.529357 0.72876  0.105177401961
 H1 0.284878 0.500258 0.91050  0.105177401961
 H1 0.784553 0.501294 0.91087  0.105177401961
 H1 0.305447 0.314235 0.78394  0.105177401961
 H1 0.805736 0.315383 0.78451  0.105177401961
 H1 0.110744 0.698847 0.82944  0.105177401961
 H1 0.610499 0.698793 0.82796  0.105177401961
 H1 0.132978 0.763817 0.9691  0.105177401961
 H1 0.632172 0.764102 0.96782  0.105177401961
 H1 0.123864 0.186262 0.33524  0.105177401961
 H1 0.624489 0.186478 0.33472  0.105177401961
 H1 0.040007 0.185936 0.18599  0.105177401961
 H1 0.540498 0.185965 0.18569  0.105177401961
 H1 0.029475 0.838886 0.14033  0.105177401961
 H1 0.529952 0.83905 0.14074  0.105177401961
 H1 0.113871 0.853637 0.29020  0.105177401961
 H1 0.614578 0.853924 0.29017  0.105177401961
 H1 0.452231 0.081576 0.06953  0.105177401961
 H1 0.952027 0.081564 0.0690  0.105177401961
 H1 0.453576 0.936254 0.04024  0.105177401961
 H1 0.953336 0.93625 0.03967  0.105177401961
 C1 0.481082 0.389578 0.79498  0.676581985294
 C1 0.982151 0.389731 0.79486  0.676581985294
 C2 0.469848 0.316413 0.68162  -0.0307380147059
 C2 0.970771 0.316415 0.68160  -0.0307380147059
 C3 0.414833 0.331396 0.61919  -0.155222181373
 C3 0.915691 0.331286 0.61929  -0.155222181373
 C3 0.401987 0.259616 0.51568  -0.155222181373
 C3 0.902754 0.259355 0.51590  -0.155222181373
 C4 0.44539 0.172423 0.47198  0.291321985294
 C4 0.946078 0.172 0.47230  0.291321985294
 C3 0.002012 0.157324 0.53293  -0.155222181373
 C3 0.501324 0.15779 0.53264  -0.155222181373
 C3 0.013601 0.228239 0.6367  -0.155222181373
 C3 0.512796 0.228468 0.6366  -0.155222181373
 C5 0.376824 0.092945 0.31635  -0.0648580147059
 C5 0.877538 0.093091 0.3163  -0.0648580147059
 C1 0.32681 0.05484 0.3750  0.676581985294
 C1 0.827029 0.05568 0.37459  0.676581985294
 C6 0.35215 0.71112 0.8891  0.182581985294
 C6 0.852067 0.711529 0.88825  0.182581985294
 C3 0.305623 0.793422 0.89006  -0.155222181373
 C3 0.805521 0.793807 0.88922  -0.155222181373
 C2 0.279312 0.851341 0.98917  -0.0307380147059
 C2 0.779048 0.851408 0.98829  -0.0307380147059
 C3 0.299801 0.820155 0.08322  -0.155222181373
 C3 0.799421 0.819992 0.08225  -0.155222181373
 C6 0.346587 0.736834 0.07603  0.182581985294
 C6 0.846218 0.73669 0.07502  0.182581985294
 C7 0.232958 0.947152 0.99438  -0.166705514706
 C7 0.732647 0.947161 0.99354  -0.166705514706
 C1 0.268397 0.794732 0.38951  0.676581985294
 C1 0.769242 0.795092 0.38971  0.676581985294
 C2 0.279771 0.68136 0.31643  -0.0307380147059
 C2 0.780136 0.68159 0.31658  -0.0307380147059
 C3 0.334809 0.618853 0.33137  -0.155222181373
 C3 0.834963 0.618481 0.33128  -0.155222181373
 C3 0.34775 0.515327 0.25964  -0.155222181373
 C3 0.847585 0.514961 0.25933  -0.155222181373
 C4 0.304502 0.471816 0.17236  0.291321985294
 C4 0.804174 0.471963 0.17215  0.291321985294
 C3 0.248563 0.532561 0.15770  -0.155222181373
 C3 0.748361 0.5332 0.15787  -0.155222181373
 C3 0.236984 0.636561 0.22839  -0.155222181373
 C3 0.737116 0.637226 0.22875  -0.155222181373
 C5 0.373287 0.315989 0.09316  -0.0648580147059
 C5 0.872686 0.316106 0.09184  -0.0648580147059
 C1 0.423706 0.374455 0.05587  0.676581985294
 C1 0.92287 0.374755 0.05416  0.676581985294
 C6 0.397333 0.888582 0.71199  0.182581985294
 C6 0.897994 0.888697 0.71159  0.182581985294
 C3 0.443907 0.889646 0.79416  -0.155222181373
 C3 0.944431 0.889697 0.79394  -0.155222181373
 C2 0.470331 0.988579 0.85143  -0.0307380147059
 C2 0.970797 0.988627 0.85136  -0.0307380147059
 C3 0.449786 0.082361 0.819  -0.155222181373
 C3 0.95037 0.082494 0.81982  -0.155222181373
 C6 0.402947 0.075061 0.73664  0.182581985294
 C6 0.903675 0.075251 0.73647  0.182581985294
 C7 0.017187 0.993877 0.94702  -0.166705514706
 C7 0.516991 0.993857 0.94680  -0.166705514706
 C1 0.017874 0.610272 0.20514  0.676581985294
 C1 0.518967 0.610415 0.2049  0.676581985294
 C2 0.029254 0.683601 0.3183  -0.0307380147059
 C2 0.530219 0.683564 0.31836  -0.0307380147059
 C3 0.084317 0.668688 0.3807  -0.155222181373
 C3 0.585245 0.668626 0.38079  -0.155222181373
 C3 0.097268 0.740642 0.48409  -0.155222181373
 C3 0.598065 0.740375 0.48432  -0.155222181373
 C4 0.053943 0.827997 0.52769  0.291321985294
 C4 0.554658 0.827563 0.52  0.291321985294
 C3 0.498724 0.842199 0.4673  -0.155222181373
 C3 0.998023 0.842711 0.4670  -0.155222181373
 C3 0.48727 0.771508 0.3633  -0.155222181373
 C3 0.986439 0.77181 0.36318  -0.155222181373
 C5 0.122474 0.906892 0.6836  -0.0648580147059
 C5 0.623257 0.907039 0.68363  -0.0648580147059
 C1 0.172983 0.944307 0.62542  0.676581985294
 C1 0.673273 0.945099 0.62493  0.676581985294
 C6 0.147965 0.288407 0.11171  0.182581985294
 C6 0.647878 0.288923 0.11087  0.182581985294
 C3 0.194536 0.20617 0.11074  -0.155222181373
 C3 0.694353 0.206538 0.10990  -0.155222181373
 C2 0.22101 0.14855 0.01168  -0.0307380147059
 C2 0.720664 0.148635 0.01078  -0.0307380147059
 C3 0.200626 0.179969 0.91772  -0.155222181373
 C3 0.700192 0.179841 0.91673  -0.155222181373
 C6 0.153803 0.263223 0.92493  0.182581985294
 C6 0.653458 0.263252 0.92396  0.182581985294
 C7 0.267394 0.052777 0.00643  -0.166705514706
 C7 0.767024 0.05283 0.00557  -0.166705514706
 C1 0.230793 0.204864 0.6102  0.676581985294
 C1 0.731624 0.20527 0.61054  0.676581985294
 C2 0.219896 0.318363 0.68337  -0.0307380147059
 C2 0.720262 0.318658 0.68363  -0.0307380147059
 C3 0.165058 0.381445 0.66868  -0.155222181373
 C3 0.665212 0.381148 0.66871  -0.155222181373
 C3 0.152426 0.484961 0.74063  -0.155222181373
 C3 0.65229 0.484696 0.74041  -0.155222181373
 C4 0.195839 0.527976 0.82780  0.291321985294
 C4 0.695541 0.528234 0.82767  0.291321985294
 C3 0.251658 0.466755 0.84208  -0.155222181373
 C3 0.751481 0.467486 0.8423  -0.155222181373
 C3 0.262917 0.362738 0.77119  -0.155222181373
 C3 0.763077 0.363502 0.77160  -0.155222181373
 C5 0.127332 0.683849 0.90809  -0.0648580147059
 C5 0.62674 0.684019 0.90685  -0.0648580147059
 C1 0.077151 0.625226 0.94581  0.676581985294
 C1 0.576322 0.625523 0.94410  0.676581985294
 C6 0.102038 0.111258 0.28842  0.182581985294
 C6 0.602683 0.111406 0.28803  0.182581985294
 C3 0.055579 0.110279 0.20611  -0.155222181373
 C3 0.556119 0.110339 0.20584  -0.155222181373
 C2 0.029221 0.011351 0.14865  -0.0307380147059
 C2 0.529703 0.011399 0.14857  -0.0307380147059
 C3 0.049669 0.917464 0.18015  -0.155222181373
 C3 0.550228 0.917624 0.18023  -0.155222181373
 C6 0.096358 0.924696 0.2635  0.182581985294
 C6 0.597054 0.924938 0.2634  0.182581985294
 C7 0.48304 0.006123 0.05320  -0.166705514706
 C7 0.982839 0.006122 0.05299  -0.166705514706
 N1 0.373397 0.684302 0.98098  -0.321698014706
 N1 0.873244 0.68454 0.98007  -0.321698014706
 N1 0.376039 0.980188 0.68475  -0.321698014706
 N1 0.876805 0.980388 0.6844  -0.321698014706
 N1 0.126818 0.315446 0.01990  -0.321698014706
 N1 0.626615 0.315718 0.01899  -0.321698014706
 N1 0.123229 0.019557 0.31556  -0.321698014706
 N1 0.62396 0.019808 0.3153  -0.321698014706
 O1 0.448222 0.480189 0.82324  -0.602310514706
 O1 0.949313 0.480398 0.82309  -0.602310514706
 O1 0.023714 0.355364 0.85666  -0.602310514706
 O1 0.522579 0.355142 0.85690  -0.602310514706
 O2 0.437702 0.09788 0.37060  -0.248868014706
 O2 0.938295 0.097283 0.37107  -0.248868014706
 O1 0.271016 0.059304 0.33349  -0.602310514706
 O1 0.771301 0.061194 0.3331  -0.602310514706
 O1 0.345696 0.022219 0.45694  -0.602310514706
 O1 0.845543 0.02233 0.45623  -0.602310514706
 O1 0.30126 0.823043 0.48005  -0.602310514706
 O1 0.802136 0.823113 0.48023  -0.602310514706
 O1 0.226787 0.856541 0.3551  -0.602310514706
 O1 0.727965 0.857365 0.35526  -0.602310514706
 O2 0.31241 0.370567 0.09768  -0.248868014706
 O2 0.81182 0.370792 0.09726  -0.248868014706
 O1 0.479504 0.333046 0.06127  -0.602310514706
 O1 0.978664 0.333131 0.05856  -0.602310514706
 O1 0.405091 0.456111 0.02269  -0.602310514706
 O1 0.904001 0.456798 0.0217  -0.602310514706
 O1 0.050741 0.519637 0.17689  -0.602310514706
 O1 0.551799 0.519776 0.17675  -0.602310514706
 O1 0.477453 0.644847 0.14309  -0.602310514706
 O1 0.976273 0.644584 0.14336  -0.602310514706
 O2 0.061714 0.902677 0.62895  -0.248868014706
 O2 0.562382 0.902126 0.62936  -0.248868014706
 O1 0.228714 0.938801 0.66689  -0.602310514706
 O1 0.729053 0.940731 0.66655  -0.602310514706
 O1 0.154461 0.977654 0.54379  -0.602310514706
 O1 0.654411 0.977655 0.54297  -0.602310514706
 O1 0.197895 0.176836 0.5197  -0.602310514706
 O1 0.69876 0.176945 0.52001  -0.602310514706
 O1 0.272081 0.142598 0.64469  -0.602310514706
 O1 0.773244 0.143466 0.64485  -0.602310514706
 O2 0.188193 0.629151 0.90269  -0.248868014706
 O2 0.687634 0.629493 0.90234  -0.248868014706
 O1 0.021364 0.666902 0.9415  -0.602310514706
 O1 0.520518 0.666912 0.93868  -0.602310514706
 O1 0.096016 0.54314 0.97815  -0.602310514706
 O1 0.594939 0.543882 0.97730  -0.602310514706
