#======================================================================

# CRYSTAL DATA

#----------------------------------------------------------------------

data_VESTA_phase_1


_pd_phase_name                         MOF
_cell_length_a                         15.61400
_cell_length_b                         17.22800
_cell_length_c                         18.40500
_cell_angle_alpha                      89.94600
_cell_angle_beta                       90.00100
_cell_angle_gamma                      90.00600
_symmetry_space_group_name_H-M         "P 1"
_symmetry_Int_Tables_number            1

loop_
_symmetry_equiv_pos_as_xyz
   "x, y, z"

loop_
   _atom_site_label
   _atom_site_fract_x
   _atom_site_fract_y
   _atom_site_fract_z
 _atom_site_charge
 Zn1 0.433644 0.823511 0.64100  1.01479305556
 Zn2 0.481135 0.670196 0.58724  1.16117305556
 Zn1 0.066365 0.17651 0.1410  1.01479305556
 Zn2 0.018842 0.329783 0.08715  1.16117305556
 Zn1 0.566366 0.323489 0.85893  1.01479305556
 Zn2 0.518847 0.170214 0.91282  1.16117305556
 Zn1 0.93363 0.676463 0.35899  1.01479305556
 Zn2 0.981127 0.829782 0.41274  1.16117305556
 Zn1 0.566332 0.176476 0.35897  1.01479305556
 Zn2 0.518842 0.32979 0.41273  1.16117305556
 Zn1 0.933612 0.823477 0.85894  1.01479305556
 Zn2 0.981135 0.670203 0.91282  1.16117305556
 Zn1 0.43361 0.676498 0.14104  1.01479305556
 Zn2 0.481129 0.829772 0.08716  1.16117305556
 Zn1 0.066346 0.323524 0.64098  1.01479305556
 Zn2 0.018849 0.170204 0.58723  1.16117305556
 H1 0.464449 0.801691 0.35914  0.100795555556
 H1 0.539085 0.72457 0.35739  0.100795555556
 H1 0.601279 0.943605 0.25531  0.100795555556
 H1 0.50167 0.932132 0.29904  0.100795555556
 H1 0.73896 0.951461 0.33011  0.100795555556
 H1 0.733255 0.944969 0.42595  0.100795555556
 H1 0.676044 0.732327 0.43143  0.100795555556
 H1 0.69694 0.81559 0.48612  0.100795555556
 H1 0.591115 0.92756 0.48915  0.100795555556
 H1 0.494874 0.922487 0.43897  0.100795555556
 H1 0.708174 0.832022 0.25155  0.100795555556
 H1 0.683431 0.741928 0.29406  0.100795555556
 H1 0.035537 0.198286 0.85933  0.100795555556
 H1 0.960857 0.275378 0.85742  0.100795555556
 H1 0.899049 0.056305 0.75565  0.100795555556
 H1 0.998502 0.067934 0.79958  0.100795555556
 H1 0.761074 0.048441 0.83036  0.100795555556
 H1 0.766696 0.054904 0.92618  0.100795555556
 H1 0.823854 0.267581 0.9313  0.100795555556
 H1 0.802923 0.184322 0.98618  0.100795555556
 H1 0.908613 0.072378 0.98949  0.100795555556
 H1 0.0 0.07738 0.93949  0.100795555556
 H1 0.791915 0.16785 0.75163  0.100795555556
 H1 0.816576 0.257969 0.79398  0.100795555556
 H1 0.535483 0.301646 0.14066  0.100795555556
 H1 0.460748 0.224588 0.14253  0.100795555556
 H1 0.39894 0.443651 0.24430  0.100795555556
 H1 0.498444 0.43206 0.20045  0.100795555556
 H1 0.261037 0.451588 0.16945  0.100795555556
 H1 0.266799 0.445065 0.07364  0.100795555556
 H1 0.323816 0.232427 0.06852  0.100795555556
 H1 0.302964 0.315716 0.01370  0.100795555556
 H1 0.408761 0.427632 0.01046  0.100795555556
 H1 0.505083 0.42258 0.06055  0.100795555556
 H1 0.291821 0.332145 0.24825  0.100795555556
 H1 0.316468 0.242026 0.20590  0.100795555556
 H1 0.964478 0.698417 0.64082  0.100795555556
 H1 0.039233 0.775463 0.6425  0.100795555556
 H1 0.101096 0.556366 0.74468  0.100795555556
 H1 0.001548 0.567926 0.70086  0.100795555556
 H1 0.238861 0.5485 0.66994  0.100795555556
 H1 0.233226 0.554964 0.57410  0.100795555556
 H1 0.176141 0.767642 0.56858  0.100795555556
 H1 0.197003 0.684374 0.51389  0.100795555556
 H1 0.091119 0.57245 0.51083  0.100795555556
 H1 0.994858 0.577541 0.56098  0.100795555556
 H1 0.208146 0.667874 0.74846  0.100795555556
 H1 0.183503 0.75801 0.70599  0.100795555556
 H1 0.535526 0.198299 0.64083  0.100795555556
 H1 0.460889 0.275419 0.64258  0.100795555556
 H1 0.3987 0.056383 0.74467  0.100795555556
 H1 0.498308 0.067857 0.70093  0.100795555556
 H1 0.261018 0.048526 0.66986  0.100795555556
 H1 0.266722 0.055017 0.5740  0.100795555556
 H1 0.323931 0.26766 0.56854  0.100795555556
 H1 0.303036 0.184396 0.51385  0.100795555556
 H1 0.408861 0.072428 0.51083  0.100795555556
 H1 0.505102 0.077501 0.56101  0.100795555556
 H1 0.291802 0.167966 0.74842  0.100795555556
 H1 0.316544 0.258059 0.70591  0.100795555556
 H1 0.964437 0.801703 0.14064  0.100795555556
 H1 0.039116 0.72461 0.14255  0.100795555556
 H1 0.100923 0.943684 0.24432  0.100795555556
 H1 0.001472 0.932055 0.20039  0.100795555556
 H1 0.2389 0.951547 0.16962  0.100795555556
 H1 0.23328 0.945084 0.07379  0.100795555556
 H1 0.176121 0.732407 0.06863  0.100795555556
 H1 0.197052 0.815666 0.01379  0.100795555556
 H1 0.091362 0.92761 0.01049  0.100795555556
 H1 0.994979 0.922607 0.0604  0.100795555556
 H1 0.208057 0.832139 0.24834  0.100795555556
 H1 0.183397 0.74202 0.20599  0.100795555556
 H1 0.464492 0.698335 0.85931  0.100795555556
 H1 0.539222 0.775397 0.85744  0.100795555556
 H1 0.601043 0.556337 0.75568  0.100795555556
 H1 0.501537 0.567925 0.79952  0.100795555556
 H1 0.738944 0.548404 0.83052  0.100795555556
 H1 0.733182 0.554926 0.92634  0.100795555556
 H1 0.676157 0.767564 0.93145  0.100795555556
 H1 0.697014 0.684279 0.98627  0.100795555556
 H1 0.591225 0.572357 0.98951  0.100795555556
 H1 0.4949 0.577405 0.93943  0.100795555556
 H1 0.708156 0.667849 0.75172  0.100795555556
 H1 0.683506 0.757965 0.79407  0.100795555556
 H1 0.0355 0.301567 0.35915  0.100795555556
 H1 0.960743 0.224522 0.35739  0.100795555556
 H1 0.898884 0.44362 0.255  0.100795555556
 H1 0.998431 0.432058 0.29911  0.100795555556
 H1 0.761118 0.451487 0.33003  0.100795555556
 H1 0.766752 0.445023 0.42587  0.100795555556
 H1 0.823836 0.232345 0.43139  0.100795555556
 H1 0.802974 0.315613 0.48608  0.100795555556
 H1 0.908861 0.427536 0.48914  0.100795555556
 H1 0.0 0.422444 0.43899  0.100795555556
 H1 0.791832 0.332113 0.25151  0.100795555556
 H1 0.816473 0.241976 0.29398  0.100795555556
 C1 0.531306 0.77662 0.49721  0.702103055556
 C2 0.572183 0.817607 0.43269  0.0111055555556
 C3 0.533239 0.78789 0.36078  -0.208735277778
 C2 0.578883 0.826799 0.29622  0.0111055555556
 C3 0.569695 0.915796 0.30172  -0.208735277778
 C2 0.608905 0.94505 0.37303  0.0111055555556
 C3 0.704913 0.923212 0.37535  -0.208735277778
 C2 0.715131 0.834671 0.36993  0.0111055555556
 C3 0.668459 0.79564 0.43469  -0.208735277778
 C3 0.563093 0.90646 0.43817  -0.208735277778
 C3 0.675286 0.805128 0.29809  -0.208735277778
 C1 0.540349 0.799681 0.22417  0.702103055556
 C1 0.601622 0.03361 0.37943  0.702103055556
 C1 0.808634 0.809245 0.37576  0.702103055556
 C1 0.968603 0.223321 0.99729  0.702103055556
 C2 0.927727 0.182317 0.93283  0.0111055555556
 C3 0.966729 0.212058 0.86089  -0.208735277778
 C2 0.92116 0.173148 0.79637  0.0111055555556
 C3 0.93044 0.084181 0.80207  -0.208735277778
 C2 0.891114 0.054866 0.87336  0.0111055555556
 C3 0.795085 0.07668 0.87557  -0.208735277778
 C2 0.784847 0.165226 0.87000  0.0111055555556
 C3 0.831449 0.20427 0.93473  -0.208735277778
 C3 0.936792 0.093439 0.9385  -0.208735277778
 C3 0.824744 0.194772 0.79814  -0.208735277778
 C1 0.959706 0.200251 0.72426  0.702103055556
 C1 0.89833 0.966264 0.87968  0.702103055556
 C1 0.691337 0.190664 0.87576  0.702103055556
 C1 0.468614 0.276668 0.  0.702103055556
 C2 0.427746 0.317671 0.06712  0.0111055555556
 C3 0.466676 0.287906 0.13907  -0.208735277778
 C2 0.421101 0.326823 0.20358  0.0111055555556
 C3 0.430388 0.415795 0.19790  -0.208735277778
 C2 0.391143 0.445121 0.12658  0.0111055555556
 C3 0.295108 0.423316 0.12430  -0.208735277778
 C2 0.284844 0.334774 0.1298  0.0111055555556
 C3 0.331456 0.295737 0.06516  -0.208735277778
 C3 0.436866 0.406548 0.0614  -0.208735277778
 C3 0.324681 0.30522 0.20177  -0.208735277778
 C1 0.459646 0.299707 0.27570  0.702103055556
 C1 0.398376 0.533703 0.12028  0.702103055556
 C1 0.191331 0.30935 0.12414  0.702103055556
 C1 0.031344 0.723377 0.50277  0.702103055556
 C2 0.072221 0.682401 0.56729  0.0111055555556
 C3 0.033297 0.712148 0.639  -0.208735277778
 C2 0.078877 0.673199 0.70376  0.0111055555556
 C3 0.069598 0.584208 0.69824  -0.208735277778
 C2 0.108839 0.554944 0.62696  0.0111055555556
 C3 0.204866 0.576749 0.62468  -0.208735277778
 C2 0.215139 0.665283 0.63010  0.0111055555556
 C3 0.16851 0.704332 0.56532  -0.208735277778
 C3 0.063085 0.593551 0.56180  -0.208735277778
 C3 0.175301 0.694817 0.70193  -0.208735277778
 C1 0.040343 0.700312 0.77581  0.702103055556
 C1 0.10155 0.46641 0.6205  0.702103055556
 C1 0.308651 0.690696 0.62425  0.702103055556
 C1 0.46867 0.223367 0.50276  0.702103055556
 C2 0.427791 0.182381 0.5672  0.0111055555556
 C3 0.466736 0.212099 0.63919  -0.208735277778
 C2 0.421093 0.17319 0.70375  0.0111055555556
 C3 0.430282 0.084193 0.69825  -0.208735277778
 C2 0.391072 0.054938 0.62695  0.0111055555556
 C3 0.295064 0.076775 0.62463  -0.208735277778
 C2 0.284844 0.165315 0.63005  0.0111055555556
 C3 0.331515 0.204346 0.5652  -0.208735277778
 C3 0.436883 0.093528 0.56180  -0.208735277778
 C3 0.32469 0.194859 0.70188  -0.208735277778
 C1 0.459626 0.200308 0.77580  0.702103055556
 C1 0.398354 0.966378 0.62054  0.702103055556
 C1 0.191342 0.190741 0.62421  0.702103055556
 C1 0.031373 0.776666 0.  0.702103055556
 C2 0.072248 0.817671 0.06714  0.0111055555556
 C3 0.033245 0.78793 0.13908  -0.208735277778
 C2 0.078814 0.82684 0.20360  0.0111055555556
 C3 0.069534 0.915808 0.1979  -0.208735277778
 C2 0.10886 0.945122 0.12661  0.0111055555556
 C3 0.20489 0.923307 0.12441  -0.208735277778
 C2 0.215128 0.834761 0.12997  0.0111055555556
 C3 0.168526 0.795718 0.06524  -0.208735277778
 C3 0.063183 0.906548 0.06146  -0.208735277778
 C3 0.17523 0.805217 0.20184  -0.208735277778
 C1 0.040267 0.799738 0.27571  0.702103055556
 C1 0.101646 0.033723 0.12029  0.702103055556
 C1 0.308638 0.809323 0.12421  0.702103055556
 C1 0.531363 0.723318 0.99731  0.702103055556
 C2 0.57223 0.682317 0.93286  0.0111055555556
 C3 0.533299 0.712079 0.86090  -0.208735277778
 C2 0.578876 0.673165 0.79639  0.0111055555556
 C3 0.569593 0.584192 0.80207  -0.208735277778
 C2 0.608839 0.554866 0.87339  0.0111055555556
 C3 0.704872 0.576674 0.87568  -0.208735277778
 C2 0.715133 0.665217 0.87010  0.0111055555556
 C3 0.668519 0.704255 0.93482  -0.208735277778
 C3 0.563116 0.593439 0.93852  -0.208735277778
 C3 0.675296 0.69477 0.79821  -0.208735277778
 C1 0.54033 0.70028 0.72428  0.702103055556
 C1 0.601604 0.466284 0.87969  0.702103055556
 C1 0.808646 0.690641 0.87583  0.702103055556
 C1 0.968633 0.276609 0.49720  0.702103055556
 C2 0.927756 0.317585 0.43268  0.0111055555556
 C3 0.96668 0.287837 0.36078  -0.208735277778
 C2 0.921101 0.326787 0.29621  0.0111055555556
 C3 0.930381 0.415778 0.30173  -0.208735277778
 C2 0.891139 0.445042 0.37302  0.0111055555556
 C3 0.795112 0.423237 0.37529  -0.208735277778
 C2 0.784838 0.334703 0.36988  0.0111055555556
 C3 0.831467 0.295655 0.43466  -0.208735277778
 C3 0.936894 0.406435 0.43817  -0.208735277778
 C3 0.824677 0.305169 0.29804  -0.208735277778
 C1 0.959633 0.299673 0.22417  0.702103055556
 C1 0.898428 0.533576 0.37943  0.702103055556
 C1 0.691326 0.309291 0.37572  0.702103055556
 O1 0.518764 0.813439 0.55595  -0.62676265873
 O1 0.514981 0.703405 0.49085  -0.62676265873
 O1 0.495839 0.738425 0.22207  -0.62676265873
 O1 0.555671 0.843622 0.16861  -0.62676265873
 O1 0.565853 0.069837 0.3248  -0.62676265873
 O2 0.629174 0.068882 0.43393  -0.598596944444
 O1 0.863359 0.860207 0.39684  -0.62676265873
 O1 0.82561 0.738736 0.36229  -0.62676265873
 O1 0.981142 0.186491 0.05609  -0.62676265873
 O1 0.984964 0.296532 0.99082  -0.62676265873
 O1 0.004224 0.261504 0.72208  -0.62676265873
 O1 0.94432 0.156377 0.66874  -0.62676265873
 O1 0.933997 0.930225 0.82501  -0.62676265873
 O2 0.870776 0.930783 0.93412  -0.598596944444
 O1 0.63658 0.139709 0.89688  -0.62676265873
 O1 0.674383 0.261188 0.86222  -0.62676265873
 O1 0.481147 0.313498 0.94387  -0.62676265873
 O1 0.484967 0.203459 0.  -0.62676265873
 O1 0.504106 0.238431 0.2778  -0.62676265873
 O1 0.444322 0.343604 0.33122  -0.62676265873
 O1 0.434024 0.569742 0.17496  -0.62676265873
 O2 0.370802 0.569194 0.0658  -0.598596944444
 O1 0.136571 0.360312 0.10307  -0.62676265873
 O1 0.174365 0.238828 0.13770  -0.62676265873
 O1 0.018792 0.68655 0.44403  -0.62676265873
 O1 0.015006 0.796585 0.50913  -0.62676265873
 O1 0.995833 0.761565 0.7779  -0.62676265873
 O1 0.05567 0.656372 0.83137  -0.62676265873
 O1 0.065797 0.430161 0.67510  -0.62676265873
 O2 0.129123 0.431158 0.56604  -0.598596944444
 O1 0.363361 0.639747 0.6031  -0.62676265873
 O1 0.325643 0.761202 0.63773  -0.62676265873
 O1 0.481213 0.186548 0.44402  -0.62676265873
 O1 0.484996 0.296581 0.50912  -0.62676265873
 O1 0.504136 0.261564 0.77790  -0.62676265873
 O1 0.444307 0.156366 0.83137  -0.62676265873
 O1 0.434124 0.93015 0.67510  -0.62676265873
 O2 0.370804 0.931107 0.56604  -0.598596944444
 O1 0.136617 0.139778 0.60313  -0.62676265873
 O1 0.174366 0.26125 0.6376  -0.62676265873
 O1 0.018834 0.813496 0.94388  -0.62676265873
 O1 0.015012 0.703454 0.  -0.62676265873
 O1 0.995746 0.738487 0.27789  -0.62676265873
 O1 0.055656 0.843611 0.33124  -0.62676265873
 O1 0.065981 0.069763 0.17496  -0.62676265873
 O2 0.129201 0.069205 0.06586  -0.598596944444
 O1 0.363396 0.860278 0.10310  -0.62676265873
 O1 0.325592 0.738799 0.13776  -0.62676265873
 O1 0.51883 0.686488 0.0561  -0.62676265873
 O1 0.51501 0.796527 0.99083  -0.62676265873
 O1 0.495872 0.761557 0.72209  -0.62676265873
 O1 0.555654 0.656383 0.66875  -0.62676265873
 O1 0.565955 0.430246 0.8250  -0.62676265873
 O2 0.629177 0.430794 0.93412  -0.598596944444
 O1 0.863405 0.639678 0.89690  -0.62676265873
 O1 0.825612 0.761163 0.86227  -0.62676265873
 O1 0.981185 0.313436 0.5559  -0.62676265873
 O1 0.984971 0.203401 0.49085  -0.62676265873
 O1 0.004143 0.238419 0.22207  -0.62676265873
 O1 0.944307 0.343613 0.16860  -0.62676265873
 O1 0.934183 0.569825 0.32487  -0.62676265873
 O2 0.870855 0.568827 0.43393  -0.598596944444
 O1 0.636616 0.36024 0.39683  -0.62676265873
 O1 0.674334 0.238784 0.36224  -0.62676265873
