#======================================================================

# CRYSTAL DATA

#----------------------------------------------------------------------

data_VESTA_phase_1


_pd_phase_name                         MOF
_cell_length_a                         13.39600
_cell_length_b                         15.74400
_cell_length_c                         23.74400
_cell_angle_alpha                      89.87200
_cell_angle_beta                       90.12400
_cell_angle_gamma                      101.06400
_symmetry_space_group_name_H-M         "P 1"
_symmetry_Int_Tables_number            1

loop_
_symmetry_equiv_pos_as_xyz
   "x, y, z"

loop_
   _atom_site_label
   _atom_site_fract_x
   _atom_site_fract_y
   _atom_site_fract_z
 _atom_site_charge
 Cd1 0.367854 0.971045 0.46937  0.976692717391
 Cd1 0.8674 0.970694 0.46884  0.976692717391
 Cd1 0.133533 0.528113 0.96840  0.976692717391
 Cd1 0.634274 0.528409 0.96863  0.976692717391
 Cd1 0.133384 0.0289 0.5302  0.976692717391
 Cd1 0.633565 0.029032 0.53027  0.976692717391
 Cd1 0.36795 0.470025 0.03030  0.976692717391
 Cd1 0.868518 0.469828 0.0303  0.976692717391
 H1 0.078468 0.088 0.33030  0.0955447173913
 H1 0.57889 0.088213 0.33058  0.0955447173913
 H1 0.034349 0.377482 0.26452  0.0955447173913
 H1 0.534391 0.37747 0.26456  0.0955447173913
 H1 0.303739 0.308588 0.41174  0.0955447173913
 H1 0.803983 0.308473 0.41186  0.0955447173913
 H1 0.328596 0.387787 0.2654  0.0955447173913
 H1 0.828207 0.387744 0.26560  0.0955447173913
 H1 0.331404 0.547564 0.25348  0.0955447173913
 H1 0.830966 0.54753 0.25363  0.0955447173913
 H1 0.504328 0.600575 0.40617  0.0955447173913
 H1 0.0 0.600566 0.40606  0.0955447173913
 H1 0.505517 0.441559 0.41733  0.0955447173913
 H1 0.0 0.44155 0.41721  0.0955447173913
 H1 0.162482 0.44187 0.22735  0.0955447173913
 H1 0.66281 0.441983 0.22746  0.0955447173913
 H1 0.084867 0.396065 0.16964  0.0955447173913
 H1 0.585312 0.396281 0.16969  0.0955447173913
 H1 0.224112 0.506612 0.13455  0.0955447173913
 H1 0.724616 0.506772 0.13467  0.0955447173913
 H1 0.316899 0.460221 0.17043  0.0955447173913
 H1 0.817384 0.460347 0.17057  0.0955447173913
 H1 0.346349 0.315876 0.13851  0.0955447173913
 H1 0.846738 0.315971 0.13870  0.0955447173913
 H1 0.275313 0.267748 0.07950  0.0955447173913
 H1 0.7758 0.267863 0.07966  0.0955447173913
 H1 0.1152 0.248144 0.13374  0.0955447173913
 H1 0.615584 0.248253 0.13379  0.0955447173913
 H1 0.206405 0.19953 0.17028  0.0955447173913
 H1 0.706721 0.199633 0.17038  0.0955447173913
 H2 0.186965 0.384168 0.07685  0.196632717391
 H2 0.687489 0.384312 0.07697  0.196632717391
 H1 0.424021 0.411308 0.82948  0.0955447173913
 H1 0.924106 0.411253 0.82948  0.0955447173913
 H1 0.467995 0.121839 0.76456  0.0955447173913
 H1 0.968131 0.121866 0.76444  0.0955447173913
 H1 0.198419 0.190653 0.91233  0.0955447173913
 H1 0.69822 0.190628 0.91243  0.0955447173913
 H1 0.173222 0.112429 0.76546  0.0955447173913
 H1 0.674338 0.112637 0.76598  0.0955447173913
 H1 0.169131 0.952575 0.75282  0.0955447173913
 H1 0.67046 0.952814 0.75332  0.0955447173913
 H1 0.997857 0.89821 0.9056  0.0955447173913
 H1 0.496294 0.898022 0.90518  0.0955447173913
 H1 0.997924 0.057309 0.9175  0.0955447173913
 H1 0.496295 0.057096 0.91705  0.0955447173913
 H1 0.3386 0.057384 0.72784  0.0955447173913
 H1 0.838878 0.057446 0.72774  0.0955447173913
 H1 0.416326 0.102171 0.66998  0.0955447173913
 H1 0.916531 0.102294 0.66987  0.0955447173913
 H1 0.276173 0.992106 0.63531  0.0955447173913
 H1 0.776327 0.992181 0.6352  0.0955447173913
 H1 0.184011 0.039614 0.67057  0.0955447173913
 H1 0.684222 0.039701 0.67051  0.0955447173913
 H1 0.155999 0.183999 0.63756  0.0955447173913
 H1 0.65612 0.184023 0.6375  0.0955447173913
 H1 0.227408 0.231245 0.57849  0.0955447173913
 H1 0.727518 0.231335 0.5784  0.0955447173913
 H1 0.387395 0.250393 0.63309  0.0955447173913
 H1 0.887495 0.250541 0.63306  0.0955447173913
 H1 0.296739 0.299861 0.66908  0.0955447173913
 H1 0.796782 0.299907 0.66908  0.0955447173913
 H2 0.314632 0.114058 0.57694  0.196632717391
 H2 0.814822 0.114183 0.57686  0.196632717391
 H1 0.423893 0.911626 0.6693  0.0955447173913
 H1 0.920983 0.909524 0.66779  0.0955447173913
 H1 0.46802 0.621938 0.73468  0.0955447173913
 H1 0.968885 0.621657 0.73488  0.0955447173913
 H1 0.199565 0.691644 0.58779  0.0955447173913
 H1 0.698053 0.69126 0.5872  0.0955447173913
 H1 0.17448 0.611785 0.73383  0.0955447173913
 H1 0.673466 0.611995 0.73369  0.0955447173913
 H1 0.170183 0.451713 0.74612  0.0955447173913
 H1 0.6696 0.452088 0.74607  0.0955447173913
 H1 0.997063 0.399199 0.59347  0.0955447173913
 H1 0.496667 0.398976 0.59341  0.0955447173913
 H1 0.997435 0.558501 0.58200  0.0955447173913
 H1 0.496538 0.558153 0.58183  0.0955447173913
 H1 0.339487 0.557414 0.77148  0.0955447173913
 H1 0.83973 0.556327 0.77159  0.0955447173913
 H1 0.416972 0.602386 0.82944  0.0955447173913
 H1 0.916895 0.602526 0.82937  0.0955447173913
 H1 0.2772 0.491858 0.8640  0.0955447173913
 H1 0.777795 0.49171 0.86443  0.0955447173913
 H1 0.184806 0.53898 0.8283  0.0955447173913
 H1 0.684932 0.537907 0.82845  0.0955447173913
 H1 0.155974 0.683146 0.86077  0.0955447173913
 H1 0.655027 0.682186 0.8603  0.0955447173913
 H1 0.226881 0.730527 0.92001  0.0955447173913
 H1 0.726232 0.730629 0.91918  0.0955447173913
 H1 0.38721 0.750203 0.86592  0.0955447173913
 H1 0.886064 0.750606 0.86477  0.0955447173913
 H1 0.296444 0.799503 0.82953  0.0955447173913
 H1 0.794433 0.79857 0.82811  0.0955447173913
 H2 0.314816 0.613757 0.92218  0.196632717391
 H2 0.814798 0.614365 0.92195  0.196632717391
 H1 0.080223 0.587273 0.17039  0.0955447173913
 H1 0.5766 0.587102 0.17065  0.0955447173913
 H1 0.032403 0.87552 0.23569  0.0955447173913
 H1 0.530165 0.876102 0.23533  0.0955447173913
 H1 0.301296 0.806496 0.08711  0.0955447173913
 H1 0.804208 0.806471 0.08728  0.0955447173913
 H1 0.325149 0.884548 0.23407  0.0955447173913
 H1 0.826029 0.883988 0.23387  0.0955447173913
 H1 0.329681 0.044552 0.24678  0.0955447173913
 H1 0.829283 0.043755 0.24643  0.0955447173913
 H1 0.502604 0.098931 0.09450  0.0955447173913
 H1 0.0 0.099045 0.09511  0.0955447173913
 H1 0.501908 0.939633 0.0825  0.0955447173913
 H1 0.0 0.939994 0.08331  0.0955447173913
 H1 0.161331 0.940943 0.27222  0.0955447173913
 H1 0.660021 0.941314 0.2718  0.0955447173913
 H1 0.0843 0.89576 0.33024  0.0955447173913
 H1 0.582985 0.896768 0.33000  0.0955447173913
 H1 0.223739 0.0 0.36466  0.0955447173913
 H1 0.723392 0.0 0.36414  0.0955447173913
 H1 0.316336 0.959996 0.32923  0.0955447173913
 H1 0.815246 0.959638 0.32861  0.0955447173913
 H1 0.346105 0.816169 0.36212  0.0955447173913
 H1 0.843953 0.815484 0.36156  0.0955447173913
 H1 0.275629 0.768515 0.4213  0.0955447173913
 H1 0.773533 0.768409 0.42100  0.0955447173913
 H1 0.115059 0.748162 0.36714  0.0955447173913
 H1 0.612659 0.749069 0.36712  0.0955447173913
 H1 0.206079 0.699294 0.33100  0.0955447173913
 H1 0.702712 0.699218 0.33089  0.0955447173913
 H2 0.186827 0.884773 0.42307  0.196632717391
 H2 0.685861 0.885344 0.42272  0.196632717391
 C1 0.276285 0.154629 0.45338  0.714032717391
 C1 0.776267 0.154467 0.45325  0.714032717391
 C2 0.353984 0.188416 0.40846  -0.254482282609
 C2 0.853794 0.18814 0.40822  -0.254482282609
 C3 0.425631 0.141448 0.38320  0.454552717391
 C3 0.924899 0.14097 0.38258  0.454552717391
 C2 0.492935 0.189376 0.34032  -0.254482282609
 C2 0.992605 0.189208 0.34003  -0.254482282609
 C4 0.068474 0.151077 0.31498  -0.173515615942
 C4 0.568744 0.151221 0.3152  -0.173515615942
 C5 0.130078 0.193529 0.27367  0.234595217391
 C5 0.630174 0.193575 0.27378  0.234595217391
 C6 0.118387 0.275262 0.25132  0.122062717391
 C6 0.618507 0.275305 0.25140  0.122062717391
 C4 0.04623 0.31464 0.27861  -0.173515615942
 C4 0.54631 0.314652 0.27868  -0.173515615942
 C6 0.486076 0.273785 0.32290  0.122062717391
 C6 0.985951 0.273728 0.32278  0.122062717391
 C7 0.355226 0.272303 0.39157  0.110372717391
 C7 0.855279 0.272168 0.39153  0.110372717391
 C6 0.416991 0.406163 0.34219  0.122062717391
 C6 0.916941 0.406119 0.34219  0.122062717391
 C5 0.417434 0.580346 0.32937  0.234595217391
 C5 0.917406 0.580335 0.32938  0.234595217391
 C4 0.367782 0.434584 0.29588  -0.173515615942
 C4 0.86753 0.434546 0.29595  -0.173515615942
 C4 0.368454 0.522884 0.28911  -0.173515615942
 C4 0.868194 0.522852 0.28919  -0.173515615942
 C4 0.466939 0.55329 0.37571  -0.173515615942
 C4 0.967103 0.553273 0.37565  -0.173515615942
 C4 0.466949 0.465111 0.38177  -0.173515615942
 C4 0.967095 0.465088 0.381  -0.173515615942
 C8 0.160571 0.401136 0.18967  -0.000584782608695
 C8 0.660955 0.401272 0.18978  -0.000584782608695
 C8 0.242618 0.445339 0.14921  -0.000584782608695
 C8 0.743102 0.445483 0.14933  -0.000584782608695
 C8 0.27184 0.306813 0.11741  -0.000584782608695
 C8 0.772266 0.306926 0.11756  -0.000584782608695
 C8 0.188584 0.261268 0.15667  -0.000584782608695
 C8 0.688916 0.261375 0.15676  -0.000584782608695
 C1 0.225281 0.344884 0.95358  0.714032717391
 C1 0.725156 0.34486 0.95367  0.714032717391
 C2 0.148001 0.310782 0.9085  -0.254482282609
 C2 0.647862 0.310786 0.90860  -0.254482282609
 C3 0.076432 0.357676 0.88286  0.454552717391
 C3 0.576334 0.357733 0.88294  0.454552717391
 C2 0.009618 0.309858 0.83982  -0.254482282609
 C2 0.5095 0.309899 0.83989  -0.254482282609
 C4 0.434067 0.348252 0.8143  -0.173515615942
 C4 0.934155 0.348219 0.81433  -0.173515615942
 C5 0.372843 0.306019 0.7728  0.234595217391
 C5 0.872909 0.306014 0.77281  0.234595217391
 C6 0.384153 0.224152 0.7508  0.122062717391
 C6 0.88427 0.224173 0.75078  0.122062717391
 C4 0.456201 0.184698 0.77846  -0.173515615942
 C4 0.95634 0.184707 0.77837  -0.173515615942
 C6 0.01656 0.225519 0.82263  0.122062717391
 C6 0.516398 0.225535 0.82273  0.122062717391
 C7 0.146988 0.226938 0.89187  0.110372717391
 C7 0.646822 0.226933 0.89196  0.110372717391
 C6 0.08567 0.093298 0.84229  0.122062717391
 C6 0.585482 0.093302 0.84235  0.122062717391
 C5 0.083722 0.919232 0.82871  0.234595217391
 C5 0.583651 0.919256 0.82873  0.234595217391
 C4 0.134184 0.065327 0.79576  -0.173515615942
 C4 0.634803 0.065456 0.79608  -0.173515615942
 C4 0.132758 0.977043 0.78862  -0.173515615942
 C4 0.633467 0.977186 0.7889  -0.173515615942
 C4 0.035173 0.945836 0.87536  -0.173515615942
 C4 0.534222 0.945734 0.87508  -0.173515615942
 C4 0.035902 0.034027 0.88178  -0.173515615942
 C4 0.534913 0.033914 0.88153  -0.173515615942
 C8 0.340765 0.097811 0.68989  -0.000584782608695
 C8 0.840972 0.097886 0.68979  -0.000584782608695
 C8 0.258343 0.053757 0.64949  -0.000584782608695
 C8 0.758537 0.053836 0.64941  -0.000584782608695
 C8 0.230511 0.192422 0.61667  -0.000584782608695
 C8 0.73064 0.192498 0.61662  -0.000584782608695
 C8 0.314031 0.237836 0.65589  -0.000584782608695
 C8 0.814126 0.237917 0.65586  -0.000584782608695
 C1 0.22576 0.845516 0.54627  0.714032717391
 C1 0.725238 0.845417 0.54602  0.714032717391
 C2 0.148257 0.811352 0.59108  -0.254482282609
 C2 0.647736 0.811379 0.59086  -0.254482282609
 C3 0.076038 0.857835 0.6161  0.454552717391
 C3 0.576176 0.858237 0.61623  0.454552717391
 C2 0.008736 0.80947 0.6588  -0.254482282609
 C2 0.509344 0.810252 0.65920  -0.254482282609
 C4 0.433947 0.848511 0.68455  -0.173515615942
 C4 0.931951 0.846884 0.68342  -0.173515615942
 C5 0.372805 0.806131 0.7260  0.234595217391
 C5 0.870449 0.804035 0.7246  0.234595217391
 C6 0.384195 0.724201 0.74817  0.122062717391
 C6 0.883161 0.722876 0.74740  0.122062717391
 C4 0.456164 0.684838 0.7207  -0.173515615942
 C4 0.956248 0.684146 0.72053  -0.173515615942
 C6 0.016404 0.725341 0.6763  0.122062717391
 C6 0.516237 0.725811 0.6764  0.122062717391
 C7 0.147683 0.727568 0.60794  0.110372717391
 C7 0.646634 0.727435 0.60757  0.110372717391
 C6 0.086087 0.593521 0.6571  0.122062717391
 C6 0.585062 0.593518 0.6569  0.122062717391
 C5 0.083853 0.419302 0.67031  0.234595217391
 C5 0.583419 0.419339 0.67025  0.234595217391
 C4 0.135026 0.565002 0.70351  -0.173515615942
 C4 0.634061 0.565157 0.70338  -0.173515615942
 C4 0.133474 0.476621 0.71045  -0.173515615942
 C4 0.632798 0.476826 0.71037  -0.173515615942
 C4 0.03483 0.446475 0.62383  -0.173515615942
 C4 0.534286 0.446339 0.62376  -0.173515615942
 C4 0.035717 0.534745 0.61760  -0.173515615942
 C4 0.534881 0.534569 0.61747  -0.173515615942
 C8 0.341394 0.597769 0.80933  -0.000584782608695
 C8 0.84126 0.597142 0.80920  -0.000584782608695
 C8 0.259064 0.553389 0.84959  -0.000584782608695
 C8 0.759217 0.552903 0.84967  -0.000584782608695
 C8 0.230396 0.691814 0.88194  -0.000584782608695
 C8 0.729641 0.691454 0.88131  -0.000584782608695
 C8 0.313918 0.737531 0.84291  -0.000584782608695
 C8 0.812643 0.73704 0.84190  -0.000584782608695
 C1 0.275602 0.653163 0.0454  0.714032717391
 C1 0.77856 0.653584 0.04541  0.714032717391
 C2 0.352299 0.686673 0.09095  -0.254482282609
 C2 0.855351 0.686723 0.09094  -0.254482282609
 C3 0.423715 0.639829 0.11686  0.454552717391
 C3 0.926792 0.639778 0.11679  0.454552717391
 C2 0.490053 0.687815 0.16010  -0.254482282609
 C2 0.993246 0.687731 0.16004  -0.254482282609
 C4 0.069303 0.650053 0.18557  -0.173515615942
 C4 0.565875 0.65001 0.18569  -0.173515615942
 C5 0.130147 0.692721 0.22714  0.234595217391
 C5 0.626801 0.692776 0.22715  0.234595217391
 C6 0.117688 0.774185 0.2492  0.122062717391
 C6 0.614887 0.774453 0.24914  0.122062717391
 C4 0.045079 0.812963 0.22173  -0.173515615942
 C4 0.542427 0.813342 0.22152  -0.173515615942
 C6 0.482579 0.772051 0.17726  0.122062717391
 C6 0.985486 0.771853 0.17735  0.122062717391
 C7 0.35269 0.770346 0.10772  0.110372717391
 C7 0.855637 0.770314 0.10785  0.110372717391
 C6 0.413261 0.903828 0.15744  0.122062717391
 C6 0.915709 0.903656 0.15778  0.122062717391
 C5 0.41589 0.077693 0.17116  0.234595217391
 C5 0.916774 0.077439 0.17130  0.234595217391
 C4 0.364453 0.931683 0.20387  -0.173515615942
 C4 0.86577 0.931246 0.20388  -0.173515615942
 C4 0.366193 0.01996 0.21108  -0.173515615942
 C4 0.866726 0.019445 0.21098  -0.173515615942
 C4 0.464763 0.051208 0.12462  -0.173515615942
 C4 0.966792 0.05121 0.12510  -0.173515615942
 C4 0.463669 0.963009 0.11811  -0.173515615942
 C4 0.966473 0.963104 0.11869  -0.173515615942
 C8 0.159824 0.900664 0.31020  -0.000584782608695
 C8 0.658338 0.901114 0.30986  -0.000584782608695
 C8 0.242154 0.945343 0.35044  -0.000584782608695
 C8 0.741174 0.945455 0.34995  -0.000584782608695
 C8 0.27174 0.807166 0.38321  -0.000584782608695
 C8 0.76976 0.80703 0.38280  -0.000584782608695
 C8 0.188272 0.76113 0.34419  -0.000584782608695
 C8 0.6857 0.761369 0.34400  -0.000584782608695
 N1 0.2543 0.39249 0.09941  -0.411617282609
 N1 0.754799 0.392619 0.09954  -0.411617282609
 N2 0.177763 0.315123 0.20676  -0.102377282609
 N2 0.677977 0.315191 0.20687  -0.102377282609
 N2 0.41639 0.315095 0.35068  -0.102377282609
 N2 0.916361 0.315036 0.35065  -0.102377282609
 N1 0.247271 0.106354 0.59930  -0.411617282609
 N1 0.747475 0.106462 0.59923  -0.411617282609
 N2 0.324489 0.184243 0.70636  -0.102377282609
 N2 0.824628 0.184281 0.70630  -0.102377282609
 N2 0.086164 0.184235 0.85079  -0.102377282609
 N2 0.585976 0.184236 0.85089  -0.102377282609
 N1 0.247542 0.60586 0.89959  -0.411617282609
 N1 0.747463 0.605898 0.89939  -0.411617282609
 N2 0.324696 0.684099 0.79261  -0.102377282609
 N2 0.823702 0.682973 0.79193  -0.102377282609
 N2 0.086733 0.684561 0.64879  -0.102377282609
 N2 0.58572 0.684554 0.64849  -0.102377282609
 N1 0.254091 0.892955 0.40060  -0.411617282609
 N1 0.752993 0.893098 0.40015  -0.411617282609
 N2 0.177018 0.814491 0.29375  -0.102377282609
 N2 0.674638 0.814657 0.29348  -0.102377282609
 N2 0.412855 0.812982 0.14900  -0.102377282609
 N2 0.915662 0.812845 0.14923  -0.102377282609
 Cl1 0.027767 0.90329 0.46122  -0.537097282609
 Cl1 0.527784 0.903134 0.46154  -0.537097282609
 Cl1 0.474184 0.596386 0.96166  -0.537097282609
 Cl1 0.973694 0.595928 0.96108  -0.537097282609
 Cl1 0.473581 0.096875 0.53820  -0.537097282609
 Cl1 0.973367 0.09667 0.53758  -0.537097282609
 Cl1 0.028296 0.401759 0.03747  -0.537097282609
 Cl1 0.528728 0.403074 0.03803  -0.537097282609
 O1 0.251114 0.070839 0.45896  -0.619827282609
 O1 0.750966 0.070691 0.4588  -0.619827282609
 O2 0.238325 0.207225 0.48134  -0.584887282609
 O2 0.73856 0.207133 0.48129  -0.584887282609
 O3 0.434714 0.064964 0.3944  -0.513327282609
 O3 0.933247 0.064086 0.39314  -0.513327282609
 O1 0.250937 0.428724 0.9582  -0.619827282609
 O1 0.750901 0.428692 0.95834  -0.619827282609
 O2 0.262341 0.292569 0.98254  -0.584887282609
 O2 0.762269 0.292524 0.9825  -0.584887282609
 O3 0.066926 0.434068 0.89380  -0.513327282609
 O3 0.566888 0.434129 0.89391  -0.513327282609
 O1 0.250257 0.929331 0.5407  -0.619827282609
 O1 0.750303 0.929226 0.54065  -0.619827282609
 O2 0.263988 0.793146 0.5182  -0.584887282609
 O2 0.763133 0.792929 0.51793  -0.584887282609
 O3 0.066454 0.934215 0.6050  -0.513327282609
 O3 0.56675 0.934655 0.60507  -0.513327282609
 O1 0.250876 0.569429 0.03981  -0.619827282609
 O1 0.753013 0.569886 0.0397  -0.619827282609
 O2 0.237934 0.705872 0.01722  -0.584887282609
 O2 0.741659 0.706668 0.01707  -0.584887282609
 O3 0.43346 0.56347 0.10596  -0.513327282609
 O3 0.936421 0.563411 0.10582  -0.513327282609
 F1 0.207721 0.155737 0.25433  -0.148462282609
 F1 0.707703 0.155719 0.25435  -0.148462282609
 F1 0.416714 0.666236 0.32343  -0.148462282609
 F1 0.91672 0.666229 0.32342  -0.148462282609
 F1 0.295882 0.344349 0.75302  -0.148462282609
 F1 0.795911 0.344336 0.75302  -0.148462282609
 F1 0.083341 0.833366 0.82220  -0.148462282609
 F1 0.583351 0.833398 0.82221  -0.148462282609
 F1 0.29588 0.844367 0.74573  -0.148462282609
 F1 0.79166 0.840743 0.74330  -0.148462282609
 F1 0.083363 0.333337 0.67657  -0.148462282609
 F1 0.583342 0.333426 0.67656  -0.148462282609
 F1 0.208127 0.655585 0.24692  -0.148462282609
 F1 0.704429 0.655432 0.24699  -0.148462282609
 F1 0.416633 0.163489 0.17781  -0.148462282609
 F1 0.91666 0.163171 0.177  -0.148462282609
