#======================================================================

# CRYSTAL DATA

#----------------------------------------------------------------------

data_VESTA_phase_1


_pd_phase_name                         MOF
_cell_length_a                         16.08600
_cell_length_b                         16.09700
_cell_length_c                         16.09500
_cell_angle_alpha                      90.22100
_cell_angle_beta                       89.99100
_cell_angle_gamma                      89.73100
_symmetry_space_group_name_H-M         "P 1"
_symmetry_Int_Tables_number            1

loop_
_symmetry_equiv_pos_as_xyz
   "x, y, z"

loop_
   _atom_site_label
   _atom_site_fract_x
   _atom_site_fract_y
   _atom_site_fract_z
 _atom_site_charge
 Cu1 0.499965 0.249717 0.74996  0.819289047619
 Cu1 0.999966 0.2502 0.74995  0.819289047619
 Cu1 0.750328 0.500256 0.25026  0.819289047619
 Cu1 0.749954 8.5e-05 0.24992  0.819289047619
 Cu1 0.249896 0.749791 0.50007  0.819289047619
 Cu1 0.250001 0.750099 0.00016  0.819289047619
 Cu1 0.500094 0.750207 0.25003  0.819289047619
 Cu1 9.5e-05 0.749551 0.24988  0.819289047619
 Cu1 0.249672 0.500055 0.74970  0.819289047619
 Cu1 0.250114 0.999835 0.75001  0.819289047619
 Cu1 0.750099 0.250118 0.49989  0.819289047619
 Cu1 0.750022 0.249734 0.00018  0.819289047619
 H1 0.576724 0.078215 0.73302  0.105505714286
 H1 0.922886 0.421607 0.73441  0.105505714286
 H1 0.923761 0.079182 0.76693  0.105505714286
 H1 0.575922 0.420792 0.76808  0.105505714286
 H1 0.733385 0.575678 0.07861  0.105505714286
 H1 0.732706 0.924333 0.42143  0.105505714286
 H1 0.766621 0.923141 0.07889  0.105505714286
 H1 0.76757 0.577457 0.42200  0.105505714286
 H1 0.078188 0.733328 0.57669  0.105505714286
 H1 0.421151 0.732543 0.92371  0.105505714286
 H1 0.07839 0.768059 0.92405  0.105505714286
 H1 0.421319 0.765576 0.5764  0.105505714286
 H1 0.578427 0.076978 0.26643  0.105505714286
 H1 0.921828 0.423176 0.26700  0.105505714286
 H1 0.579226 0.424728 0.23331  0.105505714286
 H1 0.92167 0.075874 0.23228  0.105505714286
 H1 0.076593 0.234229 0.92094  0.105505714286
 H1 0.423553 0.231743 0.57848  0.105505714286
 H1 0.423489 0.266941 0.92112  0.105505714286
 H1 0.076384 0.266595 0.57840  0.105505714286
 H1 0.234214 0.578449 0.42314  0.105505714286
 H1 0.232814 0.921975 0.07658  0.105505714286
 H1 0.268516 0.578421 0.07594  0.105505714286
 H1 0.266684 0.920748 0.4236  0.105505714286
 H1 0.423431 0.921935 0.26710  0.105505714286
 H1 0.077507 0.577811 0.2661  0.105505714286
 H1 0.076255 0.920538 0.23296  0.105505714286
 H1 0.424436 0.578889 0.23218  0.105505714286
 H1 0.266741 0.424313 0.92075  0.105505714286
 H1 0.267533 0.075679 0.57847  0.105505714286
 H1 0.233672 0.076539 0.92111  0.105505714286
 H1 0.232642 0.422879 0.57823  0.105505714286
 H1 0.921779 0.26671 0.42325  0.105505714286
 H1 0.578566 0.267447 0.07661  0.105505714286
 H1 0.921659 0.231988 0.07642  0.105505714286
 H1 0.578877 0.234623 0.42349  0.105505714286
 H1 0.421399 0.922869 0.73378  0.105505714286
 H1 0.078007 0.576982 0.73336  0.105505714286
 H1 0.420998 0.575626 0.76680  0.105505714286
 H1 0.07848 0.923939 0.7678  0.105505714286
 H1 0.923684 0.765628 0.07836  0.105505714286
 H1 0.576625 0.768579 0.42175  0.105505714286
 H1 0.576695 0.732858 0.07885  0.105505714286
 H1 0.923837 0.733408 0.42137  0.105505714286
 H1 0.765992 0.42125 0.57697  0.105505714286
 H1 0.767295 0.078258 0.92357  0.105505714286
 H1 0.731988 0.42099 0.92470  0.105505714286
 H1 0.733378 0.079002 0.57617  0.105505714286
 H1 0.691117 0.999089 0.80929  0.105505714286
 H1 0.80812 0.500386 0.81110  0.105505714286
 H1 0.809723 0.000181 0.69048  0.105505714286
 H1 0.689657 0.499995 0.69193  0.105505714286
 H1 0.809743 0.689069 0.99939  0.105505714286
 H1 0.809433 0.810312 0.50049  0.105505714286
 H1 0.690712 0.808747 0.99983  0.105505714286
 H1 0.691001 0.692289 0.50084  0.105505714286
 H1 0.999369 0.809975 0.69139  0.105505714286
 H1 0.500373 0.808368 0.80981  0.105505714286
 H1 0.999065 0.691775 0.80993  0.105505714286
 H1 0.500228 0.689095 0.69056  0.105505714286
 H1 0.499443 0.191479 0.19046  0.105505714286
 H1 0.0 0.30834 0.19057  0.105505714286
 H1 0.499945 0.311149 0.30940  0.105505714286
 H1 0.0 0.189901 0.3087  0.105505714286
 H1 0.190717 0.310591 0.99988  0.105505714286
 H1 0.30915 0.308 0.49934  0.105505714286
 H1 0.309603 0.190905 0.  0.105505714286
 H1 0.190899 0.189741 0.49938  0.105505714286
 H1 0.31085 0.499587 0.30846  0.105505714286
 H1 0.309181 0.0 0.19072  0.105505714286
 H1 0.19233 0.499104 0.18951  0.105505714286
 H1 0.190341 0.999535 0.30933  0.105505714286
 C1 0.610705 0.104907 0.78536  0.273029047619
 C1 0.88892 0.394815 0.78652  0.273029047619
 C1 0.889754 0.105672 0.71455  0.273029047619
 C1 0.609947 0.394319 0.71549  0.273029047619
 C1 0.785608 0.609732 0.10525  0.273029047619
 C1 0.785166 0.890113 0.39483  0.273029047619
 C1 0.71443 0.889242 0.10554  0.273029047619
 C1 0.715075 0.611382 0.39537  0.273029047619
 C1 0.104827 0.785629 0.61073  0.273029047619
 C1 0.39453 0.784915 0.88978  0.273029047619
 C1 0.104923 0.715499 0.88993  0.273029047619
 C1 0.394557 0.713542 0.61042  0.273029047619
 C1 0.605167 0.11088 0.21429  0.273029047619
 C1 0.895169 0.38913 0.21466  0.273029047619
 C1 0.605793 0.390609 0.2855  0.273029047619
 C1 0.89512 0.110007 0.28478  0.273029047619
 C1 0.110514 0.286329 0.89425  0.273029047619
 C1 0.389495 0.284374 0.60497  0.273029047619
 C1 0.389586 0.214625 0.89443  0.273029047619
 C1 0.110505 0.214266 0.60499  0.273029047619
 C1 0.286319 0.605183 0.38912  0.273029047619
 C1 0.285173 0.895238 0.11059  0.273029047619
 C1 0.215879 0.604882 0.1099  0.273029047619
 C1 0.214398 0.894175 0.38961  0.273029047619
 C1 0.389438 0.895223 0.21478  0.273029047619
 C1 0.111384 0.604567 0.21396  0.273029047619
 C1 0.110276 0.894052 0.28533  0.273029047619
 C1 0.390323 0.605397 0.28470  0.273029047619
 C1 0.214503 0.390247 0.89416  0.273029047619
 C1 0.215039 0.109879 0.60502  0.273029047619
 C1 0.285797 0.110512 0.89442  0.273029047619
 C1 0.2851 0.388893 0.6048  0.273029047619
 C1 0.895172 0.214372 0.38924  0.273029047619
 C1 0.60523 0.215052 0.11048  0.273029047619
 C1 0.895088 0.284581 0.11046  0.273029047619
 C1 0.605629 0.286676 0.38954  0.273029047619
 C1 0.394653 0.888992 0.78593  0.273029047619
 C1 0.104734 0.611002 0.78567  0.273029047619
 C1 0.394402 0.609668 0.71453  0.273029047619
 C1 0.104977 0.889871 0.71531  0.273029047619
 C1 0.889701 0.713605 0.10512  0.273029047619
 C1 0.610632 0.715919 0.39525  0.273029047619
 C1 0.610586 0.785188 0.10552  0.273029047619
 C1 0.889684 0.78572 0.39478  0.273029047619
 C1 0.713873 0.394541 0.61099  0.273029047619
 C1 0.714914 0.104928 0.88955  0.273029047619
 C1 0.784521 0.394511 0.89055  0.273029047619
 C1 0.785645 0.10558 0.61025  0.273029047619
 C2 0.626089 0.221869 0.87402  0.713059047619
 C3 0.673553 0.062027 0.82677  -0.383570952381
 C2 0.873784 0.27785 0.87430  0.713059047619
 C3 0.825858 0.437511 0.82814  -0.383570952381
 C2 0.874033 0.222117 0.62597  0.713059047619
 C3 0.827089 0.062885 0.67305  -0.383570952381
 C2 0.625843 0.277769 0.62616  0.713059047619
 C3 0.672425 0.43722 0.67414  -0.383570952381
 C2 0.874049 0.625849 0.22202  0.713059047619
 C3 0.827077 0.672037 0.06232  -0.383570952381
 C2 0.873912 0.873957 0.27812  0.713059047619
 C3 0.826819 0.827465 0.43764  -0.383570952381
 C2 0.625948 0.874046 0.22237  0.713059047619
 C3 0.673213 0.8264 0.06269  -0.383570952381
 C2 0.626214 0.626469 0.27886  0.713059047619
 C3 0.673501 0.674495 0.43808  -0.383570952381
 C2 0.221412 0.873917 0.62621  0.713059047619
 C3 0.062144 0.827226 0.67378  -0.383570952381
 C2 0.277656 0.873925 0.87423  0.713059047619
 C3 0.437462 0.826085 0.82720  -0.383570952381
 C2 0.221664 0.626281 0.87406  0.713059047619
 C3 0.061966 0.674083 0.82723  -0.383570952381
 C2 0.277652 0.625747 0.62596  0.713059047619
 C3 0.437316 0.672032 0.67314  -0.383570952381
 C2 0.722083 0.126069 0.12597  0.713059047619
 C3 0.562355 0.173798 0.17304  -0.383570952381
 C2 0.778347 0.373814 0.12614  0.713059047619
 C3 0.937982 0.326031 0.17318  -0.383570952381
 C2 0.722593 0.374462 0.37410  0.713059047619
 C3 0.56285 0.328211 0.32685  -0.383570952381
 C2 0.778603 0.12606 0.37375  0.713059047619
 C3 0.937922 0.172685 0.32629  -0.383570952381
 C2 0.125888 0.374316 0.77744  0.713059047619
 C3 0.173222 0.32778 0.93703  -0.383570952381
 C2 0.373848 0.373708 0.72150  0.713059047619
 C3 0.326632 0.325773 0.56211  -0.383570952381
 C2 0.374135 0.125873 0.77751  0.713059047619
 C3 0.32702 0.173342 0.9372  -0.383570952381
 C2 0.126187 0.125998 0.72163  0.713059047619
 C3 0.173437 0.172554 0.56219  -0.383570952381
 C2 0.374172 0.722065 0.37382  0.713059047619
 C3 0.327927 0.562442 0.32612  -0.383570952381
 C2 0.373923 0.778293 0.1261  0.713059047619
 C3 0.326642 0.938122 0.17331  -0.383570952381
 C2 0.126369 0.721294 0.12593  0.713059047619
 C3 0.17451 0.561925 0.17237  -0.383570952381
 C2 0.125955 0.777651 0.37398  0.713059047619
 C3 0.17295 0.936851 0.32680  -0.383570952381
 N1 0.588458 0.1821 0.80703  -0.489240952381
 N1 0.91138 0.317692 0.8076  -0.489240952381
 N1 0.911737 0.182584 0.69296  -0.489240952381
 N1 0.588136 0.317329 0.69344  -0.489240952381
 N1 0.807091 0.588118 0.18243  -0.489240952381
 N1 0.806758 0.911847 0.31777  -0.489240952381
 N1 0.692763 0.911588 0.1826  -0.489240952381
 N1 0.693422 0.588867 0.31839  -0.489240952381
 N1 0.181828 0.806987 0.58844  -0.489240952381
 N1 0.317369 0.80686 0.91182  -0.489240952381
 N1 0.182063 0.693562 0.91184  -0.489240952381
 N1 0.317394 0.69241 0.58832  -0.489240952381
 N1 0.682344 0.088479 0.19275  -0.489240952381
 N1 0.818047 0.411514 0.19311  -0.489240952381
 N1 0.682935 0.412244 0.30719  -0.489240952381
 N1 0.818097 0.088191 0.30652  -0.489240952381
 N1 0.088331 0.307623 0.8171  -0.489240952381
 N1 0.411598 0.30638 0.68197  -0.489240952381
 N1 0.411652 0.192868 0.8172  -0.489240952381
 N1 0.088394 0.19295 0.68203  -0.489240952381
 N1 0.30748 0.682285 0.41148  -0.489240952381
 N1 0.306809 0.817999 0.088  -0.489240952381
 N1 0.19381 0.681925 0.08821  -0.489240952381
 N1 0.192843 0.817291 0.41172  -0.489240952381
 N1 0.411598 0.817985 0.19319  -0.489240952381
 N1 0.088808 0.681623 0.19274  -0.489240952381
 N1 0.088273 0.817156 0.30696  -0.489240952381
 N1 0.411955 0.682482 0.30659  -0.489240952381
 N1 0.1928 0.412031 0.817  -0.489240952381
 N1 0.193369 0.088101 0.68205  -0.489240952381
 N1 0.307382 0.088255 0.81727  -0.489240952381
 N1 0.306753 0.411361 0.68185  -0.489240952381
 N1 0.818146 0.193046 0.41147  -0.489240952381
 N1 0.682396 0.193176 0.08841  -0.489240952381
 N1 0.817973 0.306501 0.08845  -0.489240952381
 N1 0.682786 0.307811 0.4116  -0.489240952381
 N1 0.31748 0.91142 0.80746  -0.489240952381
 N1 0.181887 0.588614 0.80711  -0.489240952381
 N1 0.317253 0.588007 0.69294  -0.489240952381
 N1 0.181971 0.911721 0.69352  -0.489240952381
 N1 0.91172 0.692505 0.18229  -0.489240952381
 N1 0.588487 0.693897 0.31827  -0.489240952381
 N1 0.58844 0.807033 0.18262  -0.489240952381
 N1 0.911717 0.806999 0.31771  -0.489240952381
 N1 0.692532 0.317531 0.58848  -0.489240952381
 N1 0.693142 0.182117 0.91170  -0.489240952381
 N1 0.806526 0.317406 0.91214  -0.489240952381
 N1 0.807169 0.182489 0.58819  -0.489240952381
 O1 0.600842 0.290742 0.8991  -0.623225952381
 O1 0.899187 0.209079 0.89904  -0.623225952381
 O1 0.898992 0.29073 0.60098  -0.623225952381
 O1 0.60099 0.209065 0.60080  -0.623225952381
 O1 0.89915 0.601017 0.29080  -0.623225952381
 O1 0.899025 0.898879 0.20945  -0.623225952381
 O1 0.600817 0.899301 0.29117  -0.623225952381
 O1 0.600899 0.600886 0.21031  -0.623225952381
 O1 0.290044 0.898878 0.60095  -0.623225952381
 O1 0.208799 0.899261 0.89926  -0.623225952381
 O1 0.290468 0.600928 0.89904  -0.623225952381
 O1 0.208857 0.600955 0.6008  -0.623225952381
 O1 0.790945 0.100772 0.10087  -0.623225952381
 O1 0.709584 0.399169 0.10103  -0.623225952381
 O1 0.791395 0.399183 0.39921  -0.623225952381
 O1 0.709969 0.101117 0.39902  -0.623225952381
 O1 0.100757 0.39917 0.70869  -0.623225952381
 O1 0.398999 0.39912 0.79016  -0.623225952381
 O1 0.39922 0.100696 0.70867  -0.623225952381
 O1 0.101033 0.10112 0.79031  -0.623225952381
 O1 0.398954 0.790803 0.39916  -0.623225952381
 O1 0.399197 0.709454 0.10092  -0.623225952381
 O1 0.100755 0.789917 0.10097  -0.623225952381
 O1 0.100952 0.709092 0.39906  -0.623225952381
