#======================================================================

# CRYSTAL DATA

#----------------------------------------------------------------------

data_VESTA_phase_1


_pd_phase_name                         MOF
_cell_length_a                         16.56300
_cell_length_b                         16.56900
_cell_length_c                         16.57100
_cell_angle_alpha                      105.56400
_cell_angle_beta                       105.41300
_cell_angle_gamma                      105.36700
_symmetry_space_group_name_H-M         "P 1"
_symmetry_Int_Tables_number            1

loop_
_symmetry_equiv_pos_as_xyz
   "x, y, z"

loop_
   _atom_site_label
   _atom_site_fract_x
   _atom_site_fract_y
   _atom_site_fract_z
 _atom_site_charge
 Cu1 0.563647 0.250497 0.93818  0.231761742424
 Cu1 0.749388 0.43629 0.06201  0.231761742424
 Cu1 0.938 0.563463 0.25077  0.231761742424
 Cu1 0.061993 0.749172 0.43644  0.231761742424
 Cu1 0.250641 0.937886 0.56358  0.231761742424
 Cu1 0.436285 0.061738 0.74942  0.231761742424
 Cu1 0.436373 0.749566 0.06183  0.231761742424
 Cu1 0.25063 0.56376 0.93801  0.231761742424
 Cu1 0.062016 0.436593 0.74923  0.231761742424
 Cu1 0.938021 0.250879 0.56356  0.231761742424
 Cu1 0.749386 0.062207 0.43645  0.231761742424
 Cu1 0.563729 0.938316 0.25059  0.231761742424
 H1 0.468018 0.909323 0.74430  0.116071325758
 H1 0.370254 0.866883 0.76533  0.116071325758
 H1 0.629776 0.234635 0.13316  0.116071325758
 H1 0.532023 0.255737 0.09064  0.116071325758
 H1 0.597692 0.787906 0.85529  0.116071325758
 H1 0.612997 0.902965 0.90311  0.116071325758
 H1 0.597709 0.85525 0.78804  0.116071325758
 H1 0.446763 0.741158 0.67371  0.116071325758
 H1 0.3542 0.707803 0.70769  0.116071325758
 H1 0.44665 0.673645 0.74124  0.116071325758
 H1 0.396333 0.293133 0.0303  0.116071325758
 H1 0.401702 0.237476 0.92560  0.116071325758
 H1 0.762545 0.59809 0.07419  0.116071325758
 H1 0.706915 0.603292 0.96954  0.116071325758
 H1 0.294334 0.226263 0.78354  0.116071325758
 H1 0.344172 0.344011 0.81281  0.116071325758
 H1 0.226409 0.294512 0.7836  0.116071325758
 H1 0.233786 0.234257 0.98761  0.116071325758
 H1 0.229205 0.161933 0.88366  0.116071325758
 H1 0.161768 0.229433 0.88358  0.116071325758
 H1 0.744476 0.468183 0.90970  0.116071325758
 H1 0.765489 0.370334 0.86690  0.116071325758
 H1 0.132818 0.629738 0.2346  0.116071325758
 H1 0.090355 0.53197 0.2555  0.116071325758
 H1 0.855517 0.597757 0.78841  0.116071325758
 H1 0.903194 0.613167 0.90342  0.116071325758
 H1 0.788183 0.597866 0.85582  0.116071325758
 H1 0.674024 0.446812 0.74159  0.116071325758
 H1 0.70809 0.35421 0.70798  0.116071325758
 H1 0.741636 0.446634 0.67399  0.116071325758
 H1 0.030126 0.395917 0.29271  0.116071325758
 H1 0.925532 0.401351 0.23732  0.116071325758
 H1 0.07437 0.762696 0.59846  0.116071325758
 H1 0.969817 0.707318 0.60388  0.116071325758
 H1 0.783529 0.294201 0.22631  0.116071325758
 H1 0.812842 0.344207 0.34413  0.116071325758
 H1 0.783603 0.226361 0.29444  0.116071325758
 H1 0.987389 0.233252 0.2335  0.116071325758
 H1 0.883503 0.228734 0.16150  0.116071325758
 H1 0.88339 0.161382 0.22888  0.116071325758
 H1 0.909725 0.744546 0.46814  0.116071325758
 H1 0.86718 0.765406 0.37033  0.116071325758
 H1 0.234513 0.132976 0.62969  0.116071325758
 H1 0.255509 0.090158 0.53185  0.116071325758
 H1 0.788213 0.855958 0.59782  0.116071325758
 H1 0.903207 0.903612 0.61319  0.116071325758
 H1 0.855663 0.788612 0.5978  0.116071325758
 H1 0.741662 0.67422 0.44674  0.116071325758
 H1 0.708209 0.708087 0.35418  0.116071325758
 H1 0.67404 0.741856 0.44665  0.116071325758
 H1 0.29301 0.030403 0.39652  0.116071325758
 H1 0.237445 0.925783 0.40168  0.116071325758
 H1 0.598242 0.074408 0.76258  0.116071325758
 H1 0.603717 0.969754 0.70698  0.116071325758
 H1 0.226452 0.783651 0.29416  0.116071325758
 H1 0.344204 0.812858 0.34399  0.116071325758
 H1 0.294615 0.78361 0.226  0.116071325758
 H1 0.233871 0.987596 0.23385  0.116071325758
 H1 0.161792 0.883718 0.2291  0.116071325758
 H1 0.229195 0.883508 0.16169  0.116071325758
 H1 0.532001 0.090731 0.25570  0.116071325758
 H1 0.629766 0.133172 0.23467  0.116071325758
 H1 0.370249 0.765418 0.86684  0.116071325758
 H1 0.468005 0.744319 0.90936  0.116071325758
 H1 0.402332 0.212149 0.14471  0.116071325758
 H1 0.387027 0.09709 0.09689  0.116071325758
 H1 0.402312 0.144805 0.21195  0.116071325758
 H1 0.553255 0.258897 0.32629  0.116071325758
 H1 0.645821 0.29225 0.29231  0.116071325758
 H1 0.553374 0.326411 0.25876  0.116071325758
 H1 0.603687 0.706923 0.96969  0.116071325758
 H1 0.598319 0.762581 0.07441  0.116071325758
 H1 0.237479 0.401965 0.9258  0.116071325758
 H1 0.293097 0.396759 0.03046  0.116071325758
 H1 0.705689 0.773788 0.21646  0.116071325758
 H1 0.655851 0.656037 0.18719  0.116071325758
 H1 0.773613 0.705538 0.21633  0.116071325758
 H1 0.766235 0.765801 0.01239  0.116071325758
 H1 0.770818 0.838123 0.11635  0.116071325758
 H1 0.838254 0.77062 0.11642  0.116071325758
 H1 0.255541 0.531874 0.09030  0.116071325758
 H1 0.234519 0.629716 0.133  0.116071325758
 H1 0.867196 0.370311 0.76535  0.116071325758
 H1 0.909661 0.468079 0.74444  0.116071325758
 H1 0.144504 0.402292 0.21159  0.116071325758
 H1 0.096827 0.386884 0.09658  0.116071325758
 H1 0.211839 0.402191 0.14418  0.116071325758
 H1 0.325995 0.553243 0.25841  0.116071325758
 H1 0.291925 0.645844 0.29202  0.116071325758
 H1 0.258386 0.553416 0.32601  0.116071325758
 H1 0.969894 0.604132 0.70729  0.116071325758
 H1 0.074488 0.598698 0.76268  0.116071325758
 H1 0.925643 0.237352 0.40153  0.116071325758
 H1 0.030198 0.292729 0.39612  0.116071325758
 H1 0.216491 0.705847 0.77368  0.116071325758
 H1 0.187172 0.655839 0.65586  0.116071325758
 H1 0.216414 0.773684 0.70556  0.116071325758
 H1 0.012633 0.7668 0.76645  0.116071325758
 H1 0.11652 0.771316 0.83850  0.116071325758
 H1 0.116632 0.838667 0.77112  0.116071325758
 H1 0.090292 0.25551 0.53185  0.116071325758
 H1 0.132834 0.234648 0.62967  0.116071325758
 H1 0.76551 0.867087 0.3703  0.116071325758
 H1 0.744499 0.909893 0.46814  0.116071325758
 H1 0.211806 0.144095 0.40218  0.116071325758
 H1 0.096812 0.096441 0.38680  0.116071325758
 H1 0.144355 0.211439 0.40219  0.116071325758
 H1 0.258359 0.325833 0.55325  0.116071325758
 H1 0.291807 0.291966 0.64581  0.116071325758
 H1 0.325977 0.258194 0.55335  0.116071325758
 H1 0.70701 0.969653 0.6034  0.116071325758
 H1 0.762571 0.074276 0.59832  0.116071325758
 H1 0.401776 0.925642 0.23742  0.116071325758
 H1 0.396302 0.030297 0.29302  0.116071325758
 H1 0.77357 0.216404 0.70585  0.116071325758
 H1 0.655818 0.187201 0.65602  0.116071325758
 H1 0.705405 0.216443 0.77381  0.116071325758
 H1 0.766144 0.012452 0.76614  0.116071325758
 H1 0.838225 0.116331 0.7708  0.116071325758
 H1 0.770823 0.116539 0.83831  0.116071325758
 C1 0.525188 0.122224 0.02783  0.262816742424
 C2 0.512523 0.038244 0.03823  -0.0965982575758
 C1 0.474858 0.972185 0.87778  0.262816742424
 C3 0.444316 0.890647 0.7951  -0.313513257576
 C4 0.473816 0.814449 0.81447  0.255275075758
 C3 0.555714 0.204883 0.10935  -0.313513257576
 C5 0.576374 0.84209 0.84218  -0.381539507576
 C5 0.427623 0.729384 0.72940  -0.381539507576
 C1 0.620725 0.526181 0.0173  0.262816742424
 C2 0.537278 0.537256 0.00754  -0.0965982575758
 C1 0.473721 0.379316 0.98274  0.262816742424
 C3 0.394648 0.298608 0.96484  -0.313513257576
 C4 0.303251 0.303382 0.91616  0.255275075758
 C3 0.701465 0.605152 0.03509  -0.313513257576
 C5 0.291469 0.291461 0.81813  -0.381539507576
 C5 0.227603 0.227858 0.91815  -0.381539507576
 C1 0.027663 0.525075 0.12218  0.262816742424
 C2 0.038161 0.512497 0.03818  -0.0965982575758
 C1 0.877852 0.47489 0.97230  0.262816742424
 C3 0.795302 0.44442 0.89085  -0.313513257576
 C4 0.814702 0.473907 0.81473  0.255275075758
 C3 0.109096 0.555647 0.20475  -0.313513257576
 C5 0.842344 0.576497 0.84256  -0.381539507576
 C5 0.729738 0.427656 0.72970  -0.381539507576
 C1 0.017339 0.620801 0.52638  0.262816742424
 C2 0.007558 0.53736 0.53731  -0.0965982575758
 C1 0.982667 0.473538 0.37921  0.262816742424
 C3 0.964739 0.394337 0.29836  -0.313513257576
 C4 0.916055 0.302993 0.30308  0.255275075758
 C3 0.035228 0.701693 0.60552  -0.313513257576
 C5 0.818091 0.291376 0.29142  -0.381539507576
 C5 0.917977 0.22718 0.2273  -0.381539507576
 C1 0.122145 0.027632 0.52509  0.262816742424
 C2 0.038155 0.03817 0.51246  -0.0965982575758
 C1 0.972361 0.877874 0.47495  0.262816742424
 C3 0.890947 0.795343 0.44442  -0.313513257576
 C4 0.814746 0.81488 0.47391  0.255275075758
 C3 0.204687 0.10904 0.555  -0.313513257576
 C5 0.842407 0.842729 0.57650  -0.381539507576
 C5 0.729788 0.729886 0.42763  -0.381539507576
 C1 0.526281 0.017258 0.62071  0.262816742424
 C2 0.537284 0.007552 0.53726  -0.0965982575758
 C1 0.379257 0.982678 0.47373  0.262816742424
 C3 0.298519 0.964907 0.39469  -0.313513257576
 C4 0.303275 0.916171 0.30320  0.255275075758
 C3 0.605352 0.035187 0.70149  -0.313513257576
 C5 0.29157 0.818154 0.2913  -0.381539507576
 C5 0.227632 0.918146 0.22758  -0.381539507576
 C1 0.474846 0.877833 0.97217  0.262816742424
 C2 0.4875 0.961811 0.96177  -0.0965982575758
 C1 0.525169 0.027872 0.12222  0.262816742424
 C3 0.555704 0.109407 0.20487  -0.313513257576
 C4 0.526207 0.185606 0.1855  0.255275075758
 C3 0.444311 0.795171 0.89065  -0.313513257576
 C5 0.423649 0.157965 0.15782  -0.381539507576
 C5 0.572398 0.270671 0.27060  -0.381539507576
 C1 0.379296 0.473873 0.98269  0.262816742424
 C2 0.462744 0.462799 0.99247  -0.0965982575758
 C1 0.526303 0.620741 0.01727  0.262816742424
 C3 0.605375 0.70145 0.03517  -0.313513257576
 C4 0.696772 0.696674 0.08384  0.255275075758
 C3 0.298557 0.394905 0.96492  -0.313513257576
 C5 0.708554 0.70859 0.18188  -0.381539507576
 C5 0.77242 0.772198 0.08185  -0.381539507576
 C1 0.97235 0.47497 0.87783  0.262816742424
 C2 0.961852 0.487549 0.96182  -0.0965982575758
 C1 0.122163 0.525179 0.02771  0.262816742424
 C3 0.204711 0.555629 0.10915  -0.313513257576
 C4 0.185317 0.526144 0.18528  0.255275075758
 C3 0.89092 0.444402 0.79525  -0.313513257576
 C5 0.157676 0.423555 0.15744  -0.381539507576
 C5 0.270283 0.572398 0.27031  -0.381539507576
 C1 0.982678 0.37925 0.47362  0.262816742424
 C2 0.99246 0.46269 0.46269  -0.0965982575758
 C1 0.017348 0.526512 0.62079  0.262816742424
 C3 0.035281 0.605715 0.7016  -0.313513257576
 C4 0.083964 0.697057 0.69692  0.255275075758
 C3 0.964787 0.298356 0.39448  -0.313513257576
 C5 0.181926 0.708671 0.70857  -0.381539507576
 C5 0.082045 0.77287 0.77266  -0.381539507576
 C1 0.877866 0.97242 0.47489  0.262816742424
 C2 0.961859 0.961885 0.48754  -0.0965982575758
 C1 0.027656 0.122183 0.52506  0.262816742424
 C3 0.109067 0.204713 0.55557  -0.313513257576
 C4 0.185268 0.185172 0.52609  0.255275075758
 C3 0.795328 0.891016 0.44441  -0.313513257576
 C5 0.157611 0.157323 0.42349  -0.381539507576
 C5 0.270227 0.270165 0.57236  -0.381539507576
 C1 0.473737 0.982808 0.37929  0.262816742424
 C2 0.462733 0.992501 0.46274  -0.0965982575758
 C1 0.620761 0.017386 0.52628  0.262816742424
 C3 0.701498 0.035147 0.60531  -0.313513257576
 C4 0.696742 0.083882 0.69680  0.255275075758
 C3 0.394664 0.964863 0.29851  -0.313513257576
 C5 0.708451 0.181901 0.70870  -0.381539507576
 C5 0.772386 0.081903 0.77242  -0.381539507576
 I1 0.735876 0.26401 0.99991  -0.381543257576
 I1 0.499887 0.233732 0.76617  -0.381543257576
 I1 0.999934 0.735668 0.26422  -0.381543257576
 I1 0.766052 0.500077 0.23408  -0.381543257576
 I1 0.264109 0.0 0.73587  -0.381543257576
 I1 0.233969 0.765822 0.49979  -0.381543257576
 I1 0.264153 0.736052 0.00010  -0.381543257576
 I1 0.500146 0.76634 0.23384  -0.381543257576
 I1 7.7e-05 0.264379 0.73577  -0.381543257576
 I1 0.233954 0.49997 0.76593  -0.381543257576
 I1 0.735916 6e-05 0.26412  -0.381543257576
 I1 0.766048 0.234245 0.50022  -0.381543257576
 N1 0.513517 0.129059 0.94711  -0.152568257576
 N1 0.486503 0.052857 0.87092  -0.152568257576
 N1 0.628719 0.446599 0.0113  -0.152568257576
 N1 0.553313 0.37125 0.98880  -0.152568257576
 N1 0.946989 0.513357 0.12911  -0.152568257576
 N1 0.870895 0.486418 0.05301  -0.152568257576
 N1 0.01133 0.62866 0.44679  -0.152568257576
 N1 0.988701 0.553122 0.37129  -0.152568257576
 N1 0.129096 0.946935 0.51350  -0.152568257576
 N1 0.053017 0.870878 0.48659  -0.152568257576
 N1 0.446662 0.011139 0.62869  -0.152568257576
 N1 0.371243 0.988574 0.5532  -0.152568257576
 N1 0.486513 0.870997 0.05289  -0.152568257576
 N1 0.513527 0.9472 0.12908  -0.152568257576
 N1 0.371302 0.553458 0.98862  -0.152568257576
 N1 0.44671 0.628808 0.01121  -0.152568257576
 N1 0.053026 0.486693 0.87090  -0.152568257576
 N1 0.129121 0.513634 0.94700  -0.152568257576
 N1 0.988684 0.371389 0.55321  -0.152568257576
 N1 0.011313 0.446927 0.62871  -0.152568257576
 N1 0.870918 0.053118 0.48649  -0.152568257576
 N1 0.946995 0.129175 0.51340  -0.152568257576
 N1 0.553358 0.988922 0.37131  -0.152568257576
 N1 0.628777 0.011494 0.44672  -0.152568257576
