#======================================================================

# CRYSTAL DATA

#----------------------------------------------------------------------

data_VESTA_phase_1


_pd_phase_name                         MOF
_cell_length_a                         22.21800
_cell_length_b                         14.32100
_cell_length_c                         18.37300
_cell_angle_alpha                      74.40900
_cell_angle_beta                       72.49300
_cell_angle_gamma                      67.10300
_symmetry_space_group_name_H-M         "P 1"
_symmetry_Int_Tables_number            1

loop_
_symmetry_equiv_pos_as_xyz
   "x, y, z"

loop_
   _atom_site_label
   _atom_site_fract_x
   _atom_site_fract_y
   _atom_site_fract_z
 _atom_site_charge
 Cu1 0.204631 0.740928 0.60225  0.323856217949
 Cu1 0.704641 0.740921 0.60225  0.323856217949
 Cu2 0.301233 0.749043 0.74098  0.267491217949
 Cu2 0.801243 0.749026 0.74099  0.267491217949
 Cu1 0.376641 0.75968 0.89725  0.323856217949
 Cu1 0.876654 0.759664 0.89726  0.323856217949
 Cu2 0.046257 0.751482 0.75846  0.267491217949
 Cu2 0.546264 0.751484 0.75847  0.267491217949
 Cu1 0.295365 0.259099 0.39772  0.323856217949
 Cu1 0.795374 0.259094 0.39772  0.323856217949
 Cu2 0.198755 0.251013 0.25897  0.267491217949
 Cu2 0.698766 0.250997 0.25898  0.267491217949
 Cu1 0.12335 0.240362 0.10271  0.323856217949
 Cu1 0.623362 0.240346 0.10271  0.323856217949
 Cu2 0.453737 0.24854 0.24150  0.267491217949
 Cu2 0.953744 0.248544 0.24150  0.267491217949
 H1 0.482561 0.761254 0.98558  0.101894789377
 H1 0.982578 0.761248 0.98558  0.101894789377
 H1 0.372561 0.560005 0.03639  0.101894789377
 H1 0.872584 0.559988 0.03640  0.101894789377
 H1 0.448545 0.502835 0.14670  0.101894789377
 H1 0.948567 0.502835 0.14671  0.101894789377
 H1 0.051264 0.554216 0.14317  0.101894789377
 H1 0.551259 0.554205 0.14317  0.101894789377
 H1 0.059943 0.667969 0.07957  0.101894789377
 H1 0.559946 0.667953 0.07957  0.101894789377
 H1 2.4e-05 0.558802 0.27734  0.101894789377
 H1 0.500033 0.558796 0.27734  0.101894789377
 H1 0.470785 0.844488 0.11480  0.101894789377
 H1 0.970806 0.844496 0.11480  0.101894789377
 H1 0.239475 0.778096 0.03497  0.101894789377
 H1 0.739494 0.77803 0.03497  0.101894789377
 H1 0.289212 0.997834 0.84552  0.101894789377
 H1 0.78921 0.997819 0.84555  0.101894789377
 H1 0.159873 0.087633 0.92844  0.101894789377
 H1 0.659869 0.087582 0.9284  0.101894789377
 H1 0.12665 0.87585 0.09965  0.101894789377
 H1 0.626656 0.875744 0.09965  0.101894789377
 H1 0.113319 0.0 0.09011  0.101894789377
 H1 0.613331 0.0 0.09016  0.101894789377
 H1 0.107031 0.876354 0.94036  0.101894789377
 H1 0.607024 0.876314 0.94037  0.101894789377
 H1 0.495036 0.082312 0.10573  0.101894789377
 H1 0.995029 0.082345 0.10572  0.101894789377
 H1 0.355325 0.739203 0.51484  0.101894789377
 H1 0.855333 0.73921 0.51484  0.101894789377
 H1 0.170115 0.940372 0.46272  0.101894789377
 H1 0.670121 0.940351 0.46272  0.101894789377
 H1 0.272658 0.997515 0.35316  0.101894789377
 H1 0.77266 0.9975 0.3531  0.101894789377
 H1 0.399231 0.94606 0.35765  0.101894789377
 H1 0.899232 0.946066 0.35765  0.101894789377
 H1 0.432957 0.832277 0.42146  0.101894789377
 H1 0.932961 0.832284 0.42146  0.101894789377
 H1 0.418044 0.941471 0.22340  0.101894789377
 H1 0.918058 0.941477 0.22340  0.101894789377
 H1 0.449663 0.655781 0.38595  0.101894789377
 H1 0.949664 0.655785 0.38594  0.101894789377
 H1 0.145548 0.722162 0.46421  0.101894789377
 H1 0.645559 0.722153 0.4642  0.101894789377
 H1 0.210927 0.50303 0.6540  0.101894789377
 H1 0.710932 0.503027 0.65409  0.101894789377
 H1 0.168082 0.41282 0.57124  0.101894789377
 H1 0.66809 0.412814 0.57125  0.101894789377
 H1 0.113943 0.624041 0.39973  0.101894789377
 H1 0.613958 0.62403 0.39973  0.101894789377
 H1 0.162232 0.49167 0.40954  0.101894789377
 H1 0.662244 0.491657 0.40954  0.101894789377
 H1 0.015405 0.62414 0.55907  0.101894789377
 H1 0.515416 0.624135 0.55907  0.101894789377
 H1 0.088837 0.417244 0.39438  0.101894789377
 H1 0.588846 0.417241 0.39438  0.101894789377
 H1 0.017421 0.238779 0.01439  0.101894789377
 H1 0.517436 0.238772 0.01439  0.101894789377
 H1 0.127414 0.440041 0.96357  0.101894789377
 H1 0.627438 0.440021 0.96357  0.101894789377
 H1 0.051427 0.497198 0.85327  0.101894789377
 H1 0.551451 0.497191 0.85327  0.101894789377
 H1 0.448736 0.445819 0.85680  0.101894789377
 H1 0.948731 0.445812 0.85681  0.101894789377
 H1 0.440051 0.332069 0.92040  0.101894789377
 H1 0.940054 0.332057 0.92041  0.101894789377
 H1 0.499962 0.44123 0.72263  0.101894789377
 H1 0.99997 0.441227 0.7226  0.101894789377
 H1 0.029196 0.155533 0.88517  0.101894789377
 H1 0.529215 0.155537 0.88517  0.101894789377
 H1 0.260508 0.222 0.96500  0.101894789377
 H1 0.760525 0.221936 0.96500  0.101894789377
 H1 0.210793 0.0 0.15441  0.101894789377
 H1 0.710792 0.0 0.15445  0.101894789377
 H1 0.340134 0.912447 0.07148  0.101894789377
 H1 0.840132 0.9124 0.0715  0.101894789377
 H1 0.373347 0.124288 0.90032  0.101894789377
 H1 0.873351 0.124188 0.9003  0.101894789377
 H1 0.386671 0.991942 0.90980  0.101894789377
 H1 0.886683 0.991832 0.90985  0.101894789377
 H1 0.392978 0.123715 0.05960  0.101894789377
 H1 0.892971 0.12368 0.05961  0.101894789377
 H1 0.004972 0.917689 0.89425  0.101894789377
 H1 0.504966 0.917717 0.89424  0.101894789377
 H1 0.144672 0.260818 0.48513  0.101894789377
 H1 0.644681 0.260822 0.48513  0.101894789377
 H1 0.329882 0.059668 0.53725  0.101894789377
 H1 0.829889 0.05965 0.53725  0.101894789377
 H1 0.227341 0.002525 0.64682  0.101894789377
 H1 0.727345 0.00251 0.64681  0.101894789377
 H1 0.100769 0.053965 0.64232  0.101894789377
 H1 0.600772 0.053966 0.64232  0.101894789377
 H1 0.067042 0.167747 0.57851  0.101894789377
 H1 0.567047 0.16775 0.57851  0.101894789377
 H1 0.081947 0.058552 0.77657  0.101894789377
 H1 0.58196 0.058555 0.77657  0.101894789377
 H1 0.050333 0.344245 0.61403  0.101894789377
 H1 0.550335 0.344246 0.61403  0.101894789377
 H1 0.354443 0.277873 0.53576  0.101894789377
 H1 0.854454 0.277865 0.53576  0.101894789377
 H1 0.28907 0.496992 0.34588  0.101894789377
 H1 0.789075 0.49699 0.34588  0.101894789377
 H1 0.331909 0.587212 0.42872  0.101894789377
 H1 0.831916 0.587207 0.42872  0.101894789377
 H1 0.386039 0.376003 0.60024  0.101894789377
 H1 0.886053 0.375993 0.60024  0.101894789377
 H1 0.337754 0.508376 0.59042  0.101894789377
 H1 0.837765 0.508364 0.59043  0.101894789377
 H1 0.484583 0.375895 0.44090  0.101894789377
 H1 0.984593 0.37589 0.44090  0.101894789377
 H1 0.411153 0.582788 0.60559  0.101894789377
 H1 0.911161 0.582786 0.60559  0.101894789377
 W1 0.427416 0.739935 0.7461  0.691886217949
 W1 0.927427 0.739923 0.74613  0.691886217949
 W1 0.170418 0.760549 0.75336  0.691886217949
 W1 0.670427 0.760543 0.75337  0.691886217949
 W1 0.072573 0.260108 0.25384  0.691886217949
 W1 0.572584 0.260096 0.25384  0.691886217949
 W1 0.329573 0.239484 0.24660  0.691886217949
 W1 0.829582 0.239479 0.24661  0.691886217949
 C1 0.460947 0.701204 0.01431  0.0931462179487
 C1 0.960965 0.701197 0.01431  0.0931462179487
 C2 0.4056 0.595086 0.0427  -0.0645381570513
 C2 0.905621 0.595075 0.04273  -0.0645381570513
 C2 0.44287 0.565495 0.09772  -0.0645381570513
 C2 0.942891 0.565491 0.09773  -0.0645381570513
 C3 0.023587 0.63464 0.12196  -0.0622462820513
 C3 0.523586 0.634631 0.12196  -0.0622462820513
 C4 0.489093 0.694516 0.18832  0.0251987179487
 C4 0.989107 0.694523 0.18831  0.0251987179487
 C5 0.482108 0.642797 0.26526  -0.111357532051
 C5 0.982117 0.642803 0.26526  -0.111357532051
 C5 0.465414 0.802425 0.174  -0.111357532051
 C5 0.965431 0.802432 0.17419  -0.111357532051
 C1 0.236662 0.849172 0.99393  0.0931462179487
 C1 0.736676 0.849115 0.9939  0.0931462179487
 C2 0.259884 0.965973 0.89783  -0.0645381570513
 C2 0.759887 0.965942 0.89786  -0.0645381570513
 C2 0.195962 0.011022 0.93753  -0.0645381570513
 C2 0.695963 0.010973 0.93757  -0.0645381570513
 C3 0.119671 0.948809 0.0582  -0.0622462820513
 C3 0.619679 0.948723 0.05831  -0.0622462820513
 C4 0.058279 0.976027 0.02675  0.0251987179487
 C4 0.558287 0.975984 0.0267  0.0251987179487
 C5 0.060221 0.930075 0.96733  -0.111357532051
 C5 0.560221 0.930051 0.96734  -0.111357532051
 C5 0.497586 0.04609 0.05909  -0.111357532051
 C5 0.997586 0.046111 0.0590  -0.111357532051
 C1 0.318068 0.799247 0.48585  0.0931462179487
 C1 0.818075 0.799246 0.48585  0.0931462179487
 C2 0.223866 0.905315 0.45677  -0.0645381570513
 C2 0.723872 0.9053 0.45677  -0.0645381570513
 C2 0.273837 0.934893 0.40214  -0.0645381570513
 C2 0.773841 0.934881 0.40214  -0.0645381570513
 C3 0.401252 0.865657 0.37878  -0.0622462820513
 C3 0.901256 0.865661 0.37878  -0.0622462820513
 C4 0.43006 0.80576 0.31242  0.0251987179487
 C4 0.930067 0.805765 0.31242  0.0251987179487
 C5 0.436029 0.857477 0.23547  -0.111357532051
 C5 0.936042 0.857483 0.23547  -0.111357532051
 C5 0.453212 0.697848 0.32654  -0.111357532051
 C5 0.953217 0.697853 0.32654  -0.111357532051
 C1 0.157918 0.651198 0.50537  0.0931462179487
 C1 0.657928 0.651191 0.50538  0.0931462179487
 C2 0.191742 0.534694 0.60170  -0.0645381570513
 C2 0.691749 0.534689 0.60171  -0.0645381570513
 C2 0.170276 0.489447 0.56204  -0.0645381570513
 C2 0.670284 0.489441 0.56204  -0.0645381570513
 C3 0.122972 0.55121 0.44124  -0.0622462820513
 C3 0.622984 0.5512 0.44124  -0.0622462820513
 C4 0.059547 0.524019 0.4729  0.0251987179487
 C4 0.559557 0.524014 0.47298  0.0251987179487
 C5 0.008923 0.570221 0.53233  -0.111357532051
 C5 0.508933 0.570217 0.53233  -0.111357532051
 C5 0.050054 0.453665 0.44095  -0.111357532051
 C5 0.550063 0.453663 0.44095  -0.111357532051
 C1 0.039033 0.29883 0.98566  0.0931462179487
 C1 0.539051 0.298822 0.98566  0.0931462179487
 C2 0.094376 0.404955 0.95724  -0.0645381570513
 C2 0.594398 0.404939 0.95724  -0.0645381570513
 C2 0.057104 0.43454 0.90225  -0.0645381570513
 C2 0.557126 0.434532 0.90225  -0.0645381570513
 C3 0.47641 0.365393 0.87801  -0.0622462820513
 C3 0.976409 0.365388 0.87802  -0.0622462820513
 C4 0.01089 0.305506 0.81166  0.0251987179487
 C4 0.510904 0.30551 0.81166  0.0251987179487
 C5 0.017879 0.357226 0.7347  -0.111357532051
 C5 0.517889 0.357229 0.73471  -0.111357532051
 C5 0.03457 0.197597 0.82578  -0.111357532051
 C5 0.534586 0.197601 0.82578  -0.111357532051
 C1 0.263327 0.150914 0.00602  0.0931462179487
 C1 0.763339 0.15086 0.00604  0.0931462179487
 C2 0.240116 0.034085 0.1021  -0.0645381570513
 C2 0.740119 0.034056 0.10213  -0.0645381570513
 C2 0.30404 0.989055 0.06240  -0.0645381570513
 C2 0.804042 0.98901 0.06243  -0.0645381570513
 C3 0.380324 0.051308 0.94166  -0.0622462820513
 C3 0.880332 0.051228 0.94168  -0.0622462820513
 C4 0.441715 0.024046 0.9732  0.0251987179487
 C4 0.941723 0.024008 0.97322  0.0251987179487
 C5 0.439782 0.069978 0.03263  -0.111357532051
 C5 0.939781 0.069959 0.03264  -0.111357532051
 C5 0.002416 0.953924 0.94088  -0.111357532051
 C5 0.502416 0.953939 0.94088  -0.111357532051
 C1 0.181929 0.200779 0.51412  0.0931462179487
 C1 0.681937 0.200777 0.51412  0.0931462179487
 C2 0.276132 0.094722 0.54320  -0.0645381570513
 C2 0.776138 0.094709 0.54320  -0.0645381570513
 C2 0.226162 0.065143 0.59783  -0.0645381570513
 C2 0.726167 0.065131 0.59783  -0.0645381570513
 C3 0.098746 0.134369 0.62119  -0.0622462820513
 C3 0.598751 0.134369 0.62119  -0.0622462820513
 C4 0.069934 0.194265 0.68756  0.0251987179487
 C4 0.569942 0.194266 0.68755  0.0251987179487
 C5 0.063961 0.142546 0.76450  -0.111357532051
 C5 0.563973 0.142549 0.76450  -0.111357532051
 C5 0.046781 0.302177 0.67343  -0.111357532051
 C5 0.546787 0.302178 0.67343  -0.111357532051
 C1 0.342074 0.348834 0.49459  0.0931462179487
 C1 0.842084 0.348828 0.49460  0.0931462179487
 C2 0.308254 0.465332 0.39826  -0.0645381570513
 C2 0.80826 0.465329 0.39827  -0.0645381570513
 C2 0.329716 0.510583 0.43793  -0.0645381570513
 C2 0.829724 0.510578 0.43793  -0.0645381570513
 C3 0.377014 0.44883 0.55873  -0.0622462820513
 C3 0.877025 0.448822 0.55873  -0.0622462820513
 C4 0.440442 0.476016 0.52699  0.0251987179487
 C4 0.940452 0.476012 0.52  0.0251987179487
 C5 0.491066 0.429812 0.46764  -0.111357532051
 C5 0.991075 0.42981 0.46764  -0.111357532051
 C5 0.449936 0.546366 0.55902  -0.111357532051
 C5 0.949944 0.546365 0.55902  -0.111357532051
 S1 0.199092 0.866143 0.79359  -0.396276282051
 S1 0.699103 0.866131 0.79360  -0.396276282051
 S2 0.365732 0.650085 0.83441  -0.416056282051
 S2 0.865746 0.650068 0.83442  -0.416056282051
 S2 0.265357 0.647139 0.69572  -0.416056282051
 S2 0.765364 0.647129 0.69573  -0.416056282051
 S1 0.111798 0.67858 0.85011  -0.396276282051
 S1 0.611803 0.678578 0.85011  -0.396276282051
 S1 0.029054 0.63425 0.70595  -0.396276282051
 S1 0.529059 0.634254 0.70595  -0.396276282051
 S2 0.107564 0.850505 0.66510  -0.416056282051
 S2 0.607575 0.850502 0.66510  -0.416056282051
 S2 0.436789 0.85341 0.80371  -0.416056282051
 S2 0.936797 0.853401 0.80371  -0.416056282051
 S1 0.375877 0.821809 0.64932  -0.396276282051
 S1 0.875884 0.821796 0.64932  -0.396276282051
 S1 0.300895 0.1339 0.20637  -0.396276282051
 S1 0.800907 0.13389 0.20637  -0.396276282051
 S2 0.134252 0.349965 0.16555  -0.416056282051
 S2 0.634266 0.349948 0.16555  -0.416056282051
 S2 0.234637 0.352897 0.30425  -0.416056282051
 S2 0.734644 0.352887 0.30425  -0.416056282051
 S1 0.388196 0.321451 0.14986  -0.396276282051
 S1 0.888201 0.321451 0.14986  -0.396276282051
 S1 0.47094 0.365773 0.29402  -0.396276282051
 S1 0.970944 0.365779 0.29402  -0.396276282051
 S2 0.392427 0.149519 0.33486  -0.416056282051
 S2 0.892438 0.149518 0.33487  -0.416056282051
 S2 0.063205 0.146627 0.19626  -0.416056282051
 S2 0.563212 0.146618 0.19626  -0.416056282051
 S1 0.124116 0.178239 0.35064  -0.396276282051
 S1 0.624125 0.178225 0.35064  -0.396276282051
 N1 0.417074 0.680048 0.99083  -0.306941282051
 N1 0.917094 0.680035 0.99083  -0.306941282051
 N2 0.477825 0.633498 0.07895  0.0600862179487
 N2 0.977844 0.633498 0.0789  0.0600862179487
 N1 0.285052 0.865059 0.93366  -0.306941282051
 N1 0.785061 0.865023 0.93368  -0.306941282051
 N2 0.181654 0.935918 0.99849  0.0600862179487
 N2 0.681662 0.935853 0.99851  0.0600862179487
 N1 0.251883 0.820365 0.50884  -0.306941282051
 N1 0.751891 0.820358 0.50884  -0.306941282051
 N2 0.333408 0.86686 0.421  0.0600862179487
 N2 0.833413 0.866857 0.42129  0.0600862179487
 N1 0.184153 0.63554 0.56571  -0.306941282051
 N1 0.684161 0.635534 0.56572  -0.306941282051
 N2 0.148733 0.564354 0.50093  0.0600862179487
 N2 0.648743 0.564346 0.50094  0.0600862179487
 N1 0.082906 0.319993 0.00914  -0.306941282051
 N1 0.582924 0.319978 0.00914  -0.306941282051
 N2 0.022151 0.366533 0.92103  0.0600862179487
 N2 0.52217 0.366529 0.92103  0.0600862179487
 N1 0.214941 0.135004 0.06629  -0.306941282051
 N1 0.71495 0.13497 0.0663  -0.306941282051
 N2 0.31834 0.064176 0.  0.0600862179487
 N2 0.818348 0.064116 0.  0.0600862179487
 N1 0.248114 0.179665 0.49113  -0.306941282051
 N1 0.748122 0.179658 0.49113  -0.306941282051
 N2 0.16659 0.133171 0.57868  0.0600862179487
 N2 0.666596 0.133166 0.57868  0.0600862179487
 N1 0.315843 0.364487 0.43425  -0.306941282051
 N1 0.81585 0.364483 0.4342  -0.306941282051
 N2 0.351258 0.435681 0.49903  0.0600862179487
 N2 0.851267 0.435674 0.49904  0.0600862179487
