#======================================================================

# CRYSTAL DATA

#----------------------------------------------------------------------

data_VESTA_phase_1


_pd_phase_name                         MOF
_cell_length_a                         12.33300
_cell_length_b                         13.79300
_cell_length_c                         17.56800
_cell_angle_alpha                      90.00800
_cell_angle_beta                       93.55400
_cell_angle_gamma                      89.97100
_symmetry_space_group_name_H-M         "P 1"
_symmetry_Int_Tables_number            1

loop_
_symmetry_equiv_pos_as_xyz
   "x, y, z"

loop_
   _atom_site_label
   _atom_site_fract_x
   _atom_site_fract_y
   _atom_site_fract_z
 _atom_site_charge
 Zn1 0.434869 0.474976 0.90345  0.818119148936
 Zn1 0.462306 0.90504 0.92621  0.818119148936
 Zn1 0.065109 0.974998 0.09653  0.818119148936
 Zn1 0.037685 0.405001 0.07374  0.818119148936
 Zn1 0.565084 0.525047 0.0965  0.818119148936
 Zn1 0.537647 0.094983 0.07376  0.818119148936
 Zn1 0.934843 0.025026 0.90344  0.818119148936
 Zn1 0.962268 0.595023 0.9262  0.818119148936
 H1 0.465564 0.696678 0.84206  0.107290148936
 H1 0.277353 0.389187 0.02326  0.107290148936
 H1 0.531142 0.291046 0.70805  0.107290148936
 H1 0.533795 0.226795 0.57492  0.107290148936
 H1 0.351916 0.475617 0.4917  0.107290148936
 H1 0.35018 0.53956 0.62450  0.107290148936
 H1 0.235454 0.287483 0.46964  0.107290148936
 H1 0.091831 0.312565 0.36443  0.107290148936
 H1 0.336995 0.390997 0.21238  0.107290148936
 H1 0.481402 0.363215 0.31620  0.107290148936
 H2 0.259441 0.579709 0.79541  0.363029148936
 H2 0.120285 0.612183 0.80143  0.363029148936
 H2 0.52751 0.729217 0.13791  0.363029148936
 H2 0.50149 0.838495 0.09163  0.363029148936
 H1 0.034332 0.196674 0.15795  0.107290148936
 H1 0.222634 0.889539 0.97657  0.107290148936
 H1 0.969254 0.79083 0.29186  0.107290148936
 H1 0.96661 0.726608 0.42499  0.107290148936
 H1 0.147918 0.975592 0.5082  0.107290148936
 H1 0.149661 0.039471 0.37549  0.107290148936
 H1 0.264611 0.787258 0.53036  0.107290148936
 H1 0.408211 0.812368 0.63555  0.107290148936
 H1 0.163007 0.891145 0.78755  0.107290148936
 H1 0.018622 0.863344 0.68374  0.107290148936
 H2 0.240519 0.079579 0.20471  0.363029148936
 H2 0.379647 0.112072 0.19868  0.363029148936
 H2 0.972269 0.229169 0.86211  0.363029148936
 H2 0.998358 0.338423 0.90839  0.363029148936
 H1 0.534388 0.303346 0.15792  0.107290148936
 H1 0.722599 0.610836 0.97671  0.107290148936
 H1 0.468809 0.708976 0.29192  0.107290148936
 H1 0.466154 0.773226 0.42506  0.107290148936
 H1 0.648042 0.524409 0.50825  0.107290148936
 H1 0.649778 0.460467 0.37548  0.107290148936
 H1 0.764499 0.71254 0.53034  0.107290148936
 H1 0.908122 0.687459 0.6355  0.107290148936
 H1 0.66296 0.609026 0.78759  0.107290148936
 H1 0.518553 0.636809 0.68378  0.107290148936
 H2 0.740512 0.420315 0.20457  0.363029148936
 H2 0.879668 0.387842 0.1985  0.363029148936
 H2 0.472441 0.270806 0.86207  0.363029148936
 H2 0.49846 0.161528 0.9083  0.363029148936
 H1 0.965619 0.803349 0.84203  0.107290148936
 H1 0.777319 0.110485 0.0234  0.107290148936
 H1 0.030705 0.209189 0.70812  0.107290148936
 H1 0.033349 0.273412 0.57499  0.107290148936
 H1 0.852028 0.024434 0.49171  0.107290148936
 H1 0.850287 0.960554 0.62448  0.107290148936
 H1 0.735341 0.21277 0.46962  0.107290148936
 H1 0.591741 0.187659 0.36442  0.107290148936
 H1 0.836946 0.108876 0.21243  0.107290148936
 H1 0.981331 0.136676 0.31623  0.107290148936
 H2 0.759433 0.920444 0.79526  0.363029148936
 H2 0.620306 0.887951 0.80130  0.363029148936
 H2 0.027689 0.770854 0.13787  0.363029148936
 H2 0.001601 0.6616 0.09159  0.363029148936
 C1 0.481745 0.688828 0.90313  0.287894148936
 C2 0.511092 0.721213 0.02252  0.637639148936
 C2 0.187305 0.529524 0.88814  0.637639148936
 C1 0.231258 0.434778 0.98270  0.287894148936
 C3 0.434183 0.456759 0.75386  0.667734148936
 C4 0.438946 0.418794 0.67507  -0.202670851064
 C5 0.491589 0.330963 0.66060  -0.111280851064
 C5 0.493586 0.295034 0.58676  -0.111280851064
 C6 0.441649 0.346619 0.52630  0.294419148936
 C5 0.390154 0.435152 0.5393  -0.111280851064
 C5 0.389357 0.470592 0.61345  -0.111280851064
 C6 0.365925 0.325729 0.39865  0.294419148936
 C5 0.256932 0.310456 0.41316  -0.111280851064
 C5 0.177119 0.324759 0.35468  -0.111280851064
 C4 0.205431 0.354666 0.28214  -0.202670851064
 C5 0.315399 0.368106 0.26876  -0.111280851064
 C5 0.39605 0.353141 0.32655  -0.111280851064
 C3 0.119116 0.370397 0.21991  0.667734148936
 C1 0.018126 0.188817 0.09688  0.287894148936
 C2 0.988716 0.221179 0.97749  0.637639148936
 C2 0.312656 0.029538 0.11189  0.637639148936
 C1 0.268717 0.935039 0.01720  0.287894148936
 C3 0.065852 0.95667 0.24611  0.667734148936
 C4 0.061154 0.918676 0.32489  -0.202670851064
 C5 0.008713 0.83079 0.33933  -0.111280851064
 C5 0.006711 0.794882 0.41317  -0.111280851064
 C6 0.058459 0.846533 0.47365  0.294419148936
 C5 0.109806 0.935091 0.46061  -0.111280851064
 C5 0.110617 0.970506 0.38653  -0.111280851064
 C6 0.134116 0.8257 0.60131  0.294419148936
 C5 0.243114 0.810301 0.58682  -0.111280851064
 C5 0.322922 0.824651 0.645  -0.111280851064
 C4 0.294592 0.854635 0.71782  -0.202670851064
 C5 0.184618 0.868188 0.73118  -0.111280851064
 C5 0.103976 0.853183 0.67340  -0.111280851064
 C3 0.380891 0.870391 0.78005  0.667734148936
 C1 0.518207 0.311196 0.09685  0.287894148936
 C2 0.48886 0.27881 0.97746  0.637639148936
 C2 0.812648 0.470499 0.11183  0.637639148936
 C1 0.768694 0.565245 0.01728  0.287894148936
 C3 0.565763 0.543263 0.24611  0.667734148936
 C4 0.561001 0.581226 0.32491  -0.202670851064
 C5 0.508376 0.669066 0.33938  -0.111280851064
 C5 0.506358 0.704984 0.41322  -0.111280851064
 C6 0.558312 0.65341 0.47368  0.294419148936
 C5 0.609793 0.56487 0.46061  -0.111280851064
 C5 0.610612 0.52944 0.38653  -0.111280851064
 C6 0.634029 0.674276 0.60132  0.294419148936
 C5 0.743019 0.689588 0.58682  -0.111280851064
 C5 0.822838 0.675225 0.64529  -0.111280851064
 C4 0.79452 0.645382 0.71784  -0.202670851064
 C5 0.684557 0.631879 0.7312  -0.111280851064
 C5 0.603902 0.646904 0.67343  -0.111280851064
 C3 0.880835 0.629635 0.78007  0.667734148936
 C1 0.981827 0.811206 0.90310  0.287894148936
 C2 0.01124 0.778845 0.02249  0.637639148936
 C2 0.687297 0.970485 0.88808  0.637639148936
 C1 0.731235 0.064984 0.98277  0.287894148936
 C3 0.934102 0.043352 0.75387  0.667734148936
 C4 0.938798 0.081347 0.6750  -0.202670851064
 C5 0.991278 0.169231 0.66065  -0.111280851064
 C5 0.993278 0.20514 0.58681  -0.111280851064
 C6 0.941495 0.153489 0.52632  0.294419148936
 C5 0.890142 0.064934 0.53937  -0.111280851064
 C5 0.889333 0.029518 0.61345  -0.111280851064
 C6 0.865837 0.174335 0.39866  0.294419148936
 C5 0.756837 0.189713 0.41316  -0.111280851064
 C5 0.677033 0.175399 0.35468  -0.111280851064
 C4 0.705358 0.145375 0.28216  -0.202670851064
 C5 0.815336 0.131857 0.26879  -0.111280851064
 C5 0.895976 0.146827 0.3265  -0.111280851064
 C3 0.61906 0.129628 0.21993  0.667734148936
 N1 0.273097 0.478525 0.9219  -0.546345851064
 N2 0.096828 0.515607 0.92687  -0.343780851064
 N2 0.127109 0.454711 0.98822  -0.343780851064
 N3 0.192718 0.58766 0.82708  -0.748190851064
 N2 0.512204 0.624039 0.01597  -0.343780851064
 N1 0.492489 0.764174 0.95278  -0.546345851064
 N2 0.493878 0.604089 0.93828  -0.343780851064
 N3 0.531824 0.769948 0.08929  -0.748190851064
 N1 0.226879 0.978664 0.07807  -0.546345851064
 N2 0.403129 0.015671 0.0731  -0.343780851064
 N2 0.372847 0.954953 0.01169  -0.343780851064
 N3 0.307235 0.087541 0.17305  -0.748190851064
 N2 0.98756 0.124009 0.98404  -0.343780851064
 N1 0.007403 0.264156 0.04723  -0.546345851064
 N2 0.005938 0.104079 0.06173  -0.343780851064
 N3 0.967975 0.269921 0.91073  -0.748190851064
 N1 0.726855 0.521498 0.07807  -0.546345851064
 N2 0.903125 0.484416 0.07310  -0.343780851064
 N2 0.872843 0.545311 0.01176  -0.343780851064
 N3 0.807234 0.412363 0.17290  -0.748190851064
 N2 0.487748 0.375985 0.98400  -0.343780851064
 N1 0.507464 0.235849 0.04720  -0.546345851064
 N2 0.506075 0.395934 0.06170  -0.343780851064
 N3 0.468127 0.230075 0.91069  -0.748190851064
 N1 0.773074 0.021359 0.92190  -0.546345851064
 N2 0.596824 0.984353 0.92685  -0.343780851064
 N2 0.627106 0.04507 0.98829  -0.343780851064
 N3 0.692718 0.912482 0.82693  -0.748190851064
 N2 0.012394 0.876014 0.01594  -0.343780851064
 N1 0.992551 0.735866 0.95275  -0.546345851064
 N2 0.994013 0.895945 0.93825  -0.343780851064
 N3 0.031983 0.730102 0.0892  -0.748190851064
 O1 0.449214 0.308155 0.4542  -0.261430851064
 O2 0.021684 0.349938 0.22983  -0.582590851064
 O3 0.152313 0.404035 0.15607  -0.625115851064
 O2 0.398221 0.540657 0.7663  -0.582590851064
 O3 0.468167 0.400409 0.81008  -0.625115851064
 O1 0.050839 0.808133 0.54568  -0.261430851064
 O2 0.478351 0.849944 0.7701  -0.582590851064
 O3 0.34766 0.904062 0.84389  -0.625115851064
 O2 0.101746 0.040532 0.23362  -0.582590851064
 O3 0.031851 0.900376 0.18987  -0.625115851064
 O1 0.550738 0.69187 0.54570  -0.261430851064
 O2 0.978268 0.650081 0.77014  -0.582590851064
 O3 0.847642 0.595981 0.84391  -0.625115851064
 O2 0.601736 0.459368 0.23360  -0.582590851064
 O3 0.53179 0.599617 0.189  -0.625115851064
 O1 0.949112 0.19189 0.45429  -0.261430851064
 O2 0.5216 0.150083 0.22984  -0.582590851064
 O3 0.652294 0.095966 0.15608  -0.625115851064
 O2 0.898206 0.959491 0.76635  -0.582590851064
 O3 0.968102 0.099646 0.81011  -0.625115851064
