#======================================================================

# CRYSTAL DATA

#----------------------------------------------------------------------

data_VESTA_phase_1


_pd_phase_name                         MOF
_cell_length_a                         19.31400
_cell_length_b                         21.40000
_cell_length_c                         26.00400
_cell_angle_alpha                      57.18500
_cell_angle_beta                       75.07100
_cell_angle_gamma                      69.37500
_symmetry_space_group_name_H-M         "P 1"
_symmetry_Int_Tables_number            1

loop_
_symmetry_equiv_pos_as_xyz
   "x, y, z"

loop_
   _atom_site_label
   _atom_site_fract_x
   _atom_site_fract_y
   _atom_site_fract_z
 _atom_site_charge
 La1 0.145669 0.002635 0.24676  2.2001974
 La1 0.145618 0.002623 0.74683  2.2001974
 La1 0.145652 0.502567 0.24686  2.2001974
 La1 0.145628 0.502632 0.74681  2.2001974
 La1 0.645672 0.00264 0.24675  2.2001974
 La1 0.645623 0.002629 0.7468  2.2001974
 La1 0.645656 0.502572 0.24685  2.2001974
 La1 0.645632 0.502637 0.74681  2.2001974
 La1 0.35446 0.497433 0.25317  2.2001974
 La1 0.354436 0.497498 0.75312  2.2001974
 La1 0.354467 0.997444 0.25314  2.2001974
 La1 0.354415 0.997432 0.75321  2.2001974
 La1 0.854464 0.497437 0.25316  2.2001974
 La1 0.85444 0.497502 0.75312  2.2001974
 La1 0.854469 0.997449 0.25314  2.2001974
 La1 0.854419 0.997437 0.75321  2.2001974
 H1 0.239305 0.315243 0.1755  0.0990924
 H1 0.239274 0.31526 0.67555  0.0990924
 H1 0.239381 0.815276 0.17549  0.0990924
 H1 0.239338 0.815313 0.67551  0.0990924
 H1 0.739312 0.315247 0.17554  0.0990924
 H1 0.73928 0.315264 0.67555  0.0990924
 H1 0.739387 0.81528 0.17549  0.0990924
 H1 0.739344 0.815317 0.67551  0.0990924
 H1 0.322594 0.193964 0.17797  0.0990924
 H1 0.322553 0.193958 0.67801  0.0990924
 H1 0.322653 0.69395 0.17799  0.0990924
 H1 0.322621 0.69401 0.67797  0.0990924
 H1 0.8226 0.193967 0.1779  0.0990924
 H1 0.822559 0.193961 0.67801  0.0990924
 H1 0.822659 0.693953 0.17799  0.0990924
 H1 0.822627 0.694013 0.67797  0.0990924
 H1 0.004839 0.233679 0.21196  0.0990924
 H1 0.004803 0.233692 0.71198  0.0990924
 H1 0.004887 0.733652 0.21201  0.0990924
 H1 0.004848 0.7337 0.71201  0.0990924
 H1 0.504834 0.233679 0.21196  0.0990924
 H1 0.504798 0.233691 0.7119  0.0990924
 H1 0.504882 0.733652 0.21201  0.0990924
 H1 0.504844 0.7337 0.71201  0.0990924
 H1 0.421699 0.353454 0.21141  0.0990924
 H1 0.421672 0.353489 0.711  0.0990924
 H1 0.421762 0.853475 0.21139  0.0990924
 H1 0.421713 0.853499 0.71143  0.0990924
 H1 0.921708 0.353456 0.21141  0.0990924
 H1 0.92168 0.353491 0.71139  0.0990924
 H1 0.92177 0.853477 0.2113  0.0990924
 H1 0.921721 0.8535 0.71142  0.0990924
 H1 0.358386 0.306345 0.45243  0.0990924
 H1 0.358382 0.306411 0.95236  0.0990924
 H1 0.358374 0.80632 0.45235  0.0990924
 H1 0.35834 0.806319 0.95241  0.0990924
 H1 0.858393 0.306349 0.4524  0.0990924
 H1 0.858389 0.306415 0.95236  0.0990924
 H1 0.858381 0.806323 0.45235  0.0990924
 H1 0.858347 0.806323 0.95240  0.0990924
 H1 0.142571 0.303697 0.43900  0.0990924
 H1 0.142568 0.303729 0.93896  0.0990924
 H1 0.14255 0.803674 0.43894  0.0990924
 H1 0.142519 0.80364 0.93902  0.0990924
 H1 0.642578 0.3037 0.43900  0.0990924
 H1 0.642576 0.303733 0.93896  0.0990924
 H1 0.642558 0.803677 0.43894  0.0990924
 H1 0.642526 0.803644 0.93902  0.0990924
 H1 0.260746 0.184747 0.32446  0.0990924
 H1 0.260703 0.184783 0.82448  0.0990924
 H1 0.260808 0.684809 0.32443  0.0990924
 H1 0.260776 0.684827 0.82443  0.0990924
 H1 0.760752 0.184752 0.32446  0.0990924
 H1 0.760709 0.184788 0.82448  0.0990924
 H1 0.760814 0.684813 0.32442  0.0990924
 H1 0.760782 0.684831 0.82443  0.0990924
 H1 0.177466 0.306049 0.32200  0.0990924
 H1 0.177434 0.30611 0.82199  0.0990924
 H1 0.177526 0.806113 0.32196  0.0990924
 H1 0.177485 0.806108 0.82201  0.0990924
 H1 0.677472 0.306052 0.32200  0.0990924
 H1 0.67744 0.306113 0.82198  0.0990924
 H1 0.677532 0.806116 0.32196  0.0990924
 H1 0.677491 0.80611 0.82200  0.0990924
 H1 0.495241 0.266362 0.28797  0.0990924
 H1 0.495202 0.26641 0.7879  0.0990924
 H1 0.495293 0.766376 0.28799  0.0990924
 H1 0.495256 0.766387 0.78801  0.0990924
 H1 0.995237 0.266361 0.28797  0.0990924
 H1 0.995197 0.266409 0.78798  0.0990924
 H1 0.995288 0.766375 0.28799  0.0990924
 H1 0.99525 0.766387 0.78801  0.0990924
 H1 0.078362 0.146565 0.28855  0.0990924
 H1 0.078312 0.146588 0.78859  0.0990924
 H1 0.078413 0.646575 0.28858  0.0990924
 H1 0.078385 0.64661 0.78857  0.0990924
 H1 0.57837 0.146567 0.28855  0.0990924
 H1 0.57832 0.14659 0.78859  0.0990924
 H1 0.578422 0.646577 0.28858  0.0990924
 H1 0.578393 0.646611 0.78857  0.0990924
 H1 0.141741 0.193747 0.04756  0.0990924
 H1 0.141708 0.193746 0.54761  0.0990924
 H1 0.141694 0.693665 0.04762  0.0990924
 H1 0.14169 0.693732 0.54756  0.0990924
 H1 0.641748 0.19375 0.0475  0.0990924
 H1 0.641716 0.193749 0.54761  0.0990924
 H1 0.641701 0.693668 0.04762  0.0990924
 H1 0.641697 0.693735 0.54755  0.0990924
 H1 0.35755 0.196433 0.06096  0.0990924
 H1 0.35752 0.196398 0.56104  0.0990924
 H1 0.357519 0.696339 0.06100  0.0990924
 H1 0.357516 0.696373 0.56097  0.0990924
 H1 0.857557 0.196436 0.06096  0.0990924
 H1 0.857528 0.196402 0.56104  0.0990924
 H1 0.857527 0.696343 0.06100  0.0990924
 H1 0.857524 0.696376 0.56096  0.0990924
 C1 0.271894 0.40473 0.20411  0.7441574
 C1 0.271867 0.404777 0.70408  0.7441574
 C1 0.271983 0.904797 0.2040  0.7441574
 C1 0.27193 0.904806 0.70407  0.7441574
 C1 0.771901 0.404733 0.20411  0.7441574
 C1 0.771874 0.404779 0.70408  0.7441574
 C1 0.77199 0.904801 0.20401  0.7441574
 C1 0.771937 0.904809 0.70407  0.7441574
 C2 0.324631 0.340356 0.19540  -0.1380626
 C2 0.324601 0.340385 0.69539  -0.1380626
 C2 0.324706 0.840387 0.19535  -0.1380626
 C2 0.324659 0.840414 0.69538  -0.1380626
 C2 0.824637 0.340359 0.19539  -0.1380626
 C2 0.824608 0.340389 0.69539  -0.1380626
 C2 0.824712 0.84039 0.19534  -0.1380626
 C2 0.824665 0.840418 0.69538  -0.1380626
 C3 0.297572 0.296748 0.18362  -0.0520251
 C3 0.297539 0.296764 0.68363  -0.0520251
 C3 0.297642 0.79677 0.18359  -0.0520251
 C3 0.2976 0.796809 0.68360  -0.0520251
 C3 0.797579 0.296751 0.1836  -0.0520251
 C3 0.797546 0.296768 0.68363  -0.0520251
 C3 0.797648 0.796773 0.18358  -0.0520251
 C3 0.797606 0.796812 0.68360  -0.0520251
 C3 0.343857 0.228993 0.1854  -0.0520251
 C3 0.343819 0.228995 0.68550  -0.0520251
 C3 0.343916 0.728989 0.18547  -0.0520251
 C3 0.34388 0.729041 0.68547  -0.0520251
 C3 0.843863 0.228995 0.18546  -0.0520251
 C3 0.843824 0.228998 0.685  -0.0520251
 C3 0.843922 0.728992 0.18547  -0.0520251
 C3 0.843886 0.729044 0.6854  -0.0520251
 C2 0.417954 0.204195 0.19876  -0.1380626
 C2 0.417915 0.204199 0.69879  -0.1380626
 C2 0.418004 0.704181 0.19879  -0.1380626
 C2 0.417969 0.704234 0.69878  -0.1380626
 C2 0.917959 0.204198 0.19875  -0.1380626
 C2 0.917919 0.2042 0.69879  -0.1380626
 C2 0.918008 0.704183 0.19879  -0.1380626
 C2 0.917974 0.704237 0.69878  -0.1380626
 C3 0.44643 0.251604 0.20480  -0.0520251
 C3 0.446394 0.251617 0.70482  -0.0520251
 C3 0.446484 0.751592 0.20482  -0.0520251
 C3 0.446445 0.751637 0.70483  -0.0520251
 C3 0.946435 0.251606 0.204  -0.0520251
 C3 0.9464 0.251618 0.70482  -0.0520251
 C3 0.94649 0.751594 0.20482  -0.0520251
 C3 0.94645 0.751639 0.70483  -0.0520251
 C3 0.400114 0.31873 0.20380  -0.0520251
 C3 0.400083 0.318757 0.70380  -0.0520251
 C3 0.400179 0.818743 0.20378  -0.0520251
 C3 0.400133 0.818775 0.70381  -0.0520251
 C3 0.90012 0.318733 0.203  -0.0520251
 C3 0.90009 0.31876 0.70379  -0.0520251
 C3 0.900185 0.818746 0.20378  -0.0520251
 C3 0.900139 0.818777 0.70381  -0.0520251
 C4 0.034765 0.374452 0.28872  0.7962724
 C4 0.034736 0.374514 0.78869  0.7962724
 C4 0.034812 0.874501 0.28870  0.7962724
 C4 0.034766 0.874493 0.78875  0.7962724
 C4 0.534769 0.374454 0.28872  0.7962724
 C4 0.53474 0.374515 0.78869  0.7962724
 C4 0.534817 0.874502 0.28870  0.7962724
 C4 0.534769 0.874495 0.78875  0.7962724
 C4 0.251163 0.376832 0.37470  0.7962724
 C4 0.25114 0.376893 0.87465  0.7962724
 C4 0.251136 0.876812 0.37463  0.7962724
 C4 0.251084 0.876804 0.87470  0.7962724
 C4 0.75117 0.376836 0.37469  0.7962724
 C4 0.751147 0.376896 0.87465  0.7962724
 C4 0.751143 0.876815 0.3746  0.7962724
 C4 0.751092 0.876806 0.87470  0.7962724
 C2 0.250541 0.311409 0.43945  -0.1380626
 C2 0.250538 0.311457 0.939  -0.1380626
 C2 0.250528 0.811379 0.43938  -0.1380626
 C2 0.250495 0.811362 0.93945  -0.1380626
 C2 0.750549 0.311412 0.43944  -0.1380626
 C2 0.750545 0.311461 0.93939  -0.1380626
 C2 0.750534 0.811385 0.43938  -0.1380626
 C2 0.750501 0.811367 0.93944  -0.1380626
 C3 0.311274 0.281233 0.47377  -0.0520251
 C3 0.311277 0.281287 0.97371  -0.0520251
 C3 0.311263 0.781206 0.47370  -0.0520251
 C3 0.311238 0.781192 0.97376  -0.0520251
 C3 0.811281 0.281237 0.47377  -0.0520251
 C3 0.811285 0.281291 0.97371  -0.0520251
 C3 0.81127 0.781209 0.47370  -0.0520251
 C3 0.811245 0.781196 0.97375  -0.0520251
 C3 0.189313 0.279732 0.46615  -0.0520251
 C3 0.189317 0.279769 0.96610  -0.0520251
 C3 0.189297 0.779706 0.46609  -0.0520251
 C3 0.189274 0.779674 0.96616  -0.0520251
 C3 0.689321 0.279735 0.46615  -0.0520251
 C3 0.689325 0.279772 0.96610  -0.0520251
 C3 0.689305 0.77971 0.46608  -0.0520251
 C3 0.68928 0.779679 0.96616  -0.0520251
 C1 0.22815 0.095259 0.29590  0.7441574
 C1 0.228095 0.095265 0.79596  0.7441574
 C1 0.22822 0.595291 0.295  0.7441574
 C1 0.228194 0.595338 0.79587  0.7441574
 C1 0.728156 0.095261 0.29590  0.7441574
 C1 0.728103 0.09527 0.7959  0.7441574
 C1 0.728228 0.595295 0.29589  0.7441574
 C1 0.728201 0.595341 0.7958  0.7441574
 C2 0.175422 0.159647 0.30460  -0.1380626
 C2 0.175374 0.159675 0.80463  -0.1380626
 C2 0.175484 0.659682 0.30459  -0.1380626
 C2 0.175453 0.659709 0.8045  -0.1380626
 C2 0.675429 0.159652 0.30459  -0.1380626
 C2 0.67538 0.159677 0.80463  -0.1380626
 C2 0.67549 0.659684 0.30459  -0.1380626
 C2 0.67546 0.659713 0.80458  -0.1380626
 C3 0.202482 0.203251 0.31638  -0.0520251
 C3 0.20244 0.20329 0.81639  -0.0520251
 C3 0.202543 0.703306 0.31635  -0.0520251
 C3 0.20251 0.703322 0.81636  -0.0520251
 C3 0.702489 0.203255 0.31637  -0.0520251
 C3 0.702446 0.203293 0.81639  -0.0520251
 C3 0.702549 0.703309 0.31634  -0.0520251
 C3 0.702516 0.703324 0.81636  -0.0520251
 C3 0.156205 0.271019 0.31451  -0.0520251
 C3 0.156168 0.271071 0.8145  -0.0520251
 C3 0.156262 0.771074 0.31448  -0.0520251
 C3 0.156224 0.771078 0.81451  -0.0520251
 C3 0.65621 0.271022 0.31451  -0.0520251
 C3 0.656174 0.271074 0.81450  -0.0520251
 C3 0.656269 0.771078 0.31447  -0.0520251
 C3 0.65623 0.77108 0.81451  -0.0520251
 C2 0.082115 0.295825 0.30120  -0.1380626
 C2 0.08208 0.295879 0.80119  -0.1380626
 C2 0.082168 0.795871 0.30118  -0.1380626
 C2 0.082128 0.795873 0.80122  -0.1380626
 C2 0.582119 0.295826 0.30120  -0.1380626
 C2 0.582085 0.295881 0.80119  -0.1380626
 C2 0.582174 0.795875 0.30118  -0.1380626
 C2 0.582134 0.795877 0.80121  -0.1380626
 C3 0.053636 0.248423 0.29515  -0.0520251
 C3 0.053596 0.248468 0.79516  -0.0520251
 C3 0.05369 0.748449 0.29516  -0.0520251
 C3 0.053654 0.748462 0.79518  -0.0520251
 C3 0.553641 0.248424 0.29515  -0.0520251
 C3 0.553601 0.24847 0.79516  -0.0520251
 C3 0.553696 0.748451 0.29516  -0.0520251
 C3 0.55366 0.748465 0.79518  -0.0520251
 C3 0.099946 0.181286 0.29617  -0.0520251
 C3 0.099899 0.181317 0.79620  -0.0520251
 C3 0.100003 0.681309 0.29618  -0.0520251
 C3 0.099971 0.681334 0.79618  -0.0520251
 C3 0.599952 0.18129 0.29617  -0.0520251
 C3 0.599905 0.18132 0.79620  -0.0520251
 C3 0.600009 0.681311 0.29618  -0.0520251
 C3 0.599978 0.681337 0.79618  -0.0520251
 C4 0.465319 0.12558 0.21121  0.7962724
 C4 0.465272 0.125573 0.71127  0.7962724
 C4 0.465348 0.625545 0.21129  0.7962724
 C4 0.46532 0.625607 0.7112  0.7962724
 C4 0.965323 0.125582 0.21121  0.7962724
 C4 0.965276 0.125575 0.71127  0.7962724
 C4 0.965352 0.625547 0.21129  0.7962724
 C4 0.965324 0.625608 0.71126  0.7962724
 C4 0.248991 0.123261 0.12527  0.7962724
 C4 0.248942 0.123253 0.62534  0.7962724
 C4 0.24895 0.623176 0.12533  0.7962724
 C4 0.248927 0.623236 0.62528  0.7962724
 C4 0.748998 0.123265 0.12527  0.7962724
 C4 0.748948 0.123258 0.62534  0.7962724
 C4 0.748956 0.623181 0.1253  0.7962724
 C4 0.748935 0.623239 0.62528  0.7962724
 C2 0.249581 0.188708 0.06053  -0.1380626
 C2 0.249549 0.18869 0.560  -0.1380626
 C2 0.249543 0.688616 0.06058  -0.1380626
 C2 0.24954 0.688664 0.56053  -0.1380626
 C2 0.749588 0.188712 0.06052  -0.1380626
 C2 0.749557 0.188692 0.56059  -0.1380626
 C2 0.749553 0.688616 0.06058  -0.1380626
 C2 0.749546 0.68867 0.56053  -0.1380626
 C3 0.188842 0.218876 0.02621  -0.0520251
 C3 0.188818 0.218862 0.52627  -0.0520251
 C3 0.188799 0.718787 0.02627  -0.0520251
 C3 0.188804 0.718841 0.52621  -0.0520251
 C3 0.688849 0.21888 0.02621  -0.0520251
 C3 0.688825 0.218866 0.52627  -0.0520251
 C3 0.688807 0.71879 0.02627  -0.0520251
 C3 0.688811 0.718844 0.52621  -0.0520251
 C3 0.3108 0.220398 0.03382  -0.0520251
 C3 0.310778 0.220366 0.53389  -0.0520251
 C3 0.310765 0.720302 0.03387  -0.0520251
 C3 0.31077 0.720337 0.53382  -0.0520251
 C3 0.810808 0.220401 0.03382  -0.0520251
 C3 0.810784 0.220371 0.53389  -0.0520251
 C3 0.810773 0.720304 0.03386  -0.0520251
 C3 0.810778 0.720341 0.53382  -0.0520251
 O1 0.203845 0.423895 0.19566  -0.7153306
 O1 0.20382 0.423946 0.69563  -0.7153306
 O1 0.203942 0.923996 0.19554  -0.7153306
 O1 0.20389 0.924004 0.69559  -0.7153306
 O1 0.703853 0.4239 0.19566  -0.7153306
 O1 0.703827 0.423951 0.69562  -0.7153306
 O1 0.703948 0.923999 0.19554  -0.7153306
 O1 0.703896 0.924008 0.69559  -0.7153306
 O2 0.295168 0.436908 0.22410  -0.8284626
 O2 0.29514 0.436966 0.72406  -0.8284626
 O2 0.295269 0.936982 0.22399  -0.8284626
 O2 0.29521 0.936973 0.72406  -0.8284626
 O2 0.795176 0.436911 0.22409  -0.8284626
 O2 0.795149 0.436968 0.72406  -0.8284626
 O2 0.795277 0.936987 0.2239  -0.8284626
 O2 0.795217 0.936977 0.72406  -0.8284626
 O1 0.467966 0.393463 0.27633  -0.7153306
 O1 0.46794 0.393526 0.77630  -0.7153306
 O1 0.467998 0.893493 0.2763  -0.7153306
 O1 0.467951 0.893485 0.77641  -0.7153306
 O1 0.967965 0.393461 0.27633  -0.7153306
 O1 0.967939 0.393524 0.77630  -0.7153306
 O1 0.967998 0.893493 0.27635  -0.7153306
 O1 0.96795 0.893484 0.77641  -0.7153306
 O1 0.063325 0.419347 0.28923  -0.7153306
 O1 0.063298 0.419412 0.78919  -0.7153306
 O1 0.063389 0.91942 0.2891  -0.7153306
 O1 0.06334 0.919408 0.78922  -0.7153306
 O1 0.563329 0.419348 0.28922  -0.7153306
 O1 0.563303 0.419414 0.78919  -0.7153306
 O1 0.563395 0.919422 0.28915  -0.7153306
 O1 0.563343 0.919408 0.78922  -0.7153306
 O1 0.194355 0.402045 0.34551  -0.7153306
 O1 0.194328 0.402103 0.84547  -0.7153306
 O1 0.194337 0.901997 0.34544  -0.7153306
 O1 0.194282 0.901986 0.84552  -0.7153306
 O1 0.694364 0.402047 0.34550  -0.7153306
 O1 0.694336 0.402106 0.84546  -0.7153306
 O1 0.694345 0.901999 0.34544  -0.7153306
 O1 0.694289 0.90199 0.84552  -0.7153306
 O1 0.308101 0.403412 0.35216  -0.7153306
 O1 0.308071 0.403484 0.85211  -0.7153306
 O1 0.308056 0.903422 0.352  -0.7153306
 O1 0.308001 0.903421 0.85216  -0.7153306
 O1 0.808107 0.403419 0.35216  -0.7153306
 O1 0.808079 0.403486 0.85211  -0.7153306
 O1 0.808063 0.903426 0.35209  -0.7153306
 O1 0.808008 0.903425 0.85216  -0.7153306
 O1 0.296189 0.076051 0.3043  -0.7153306
 O1 0.296135 0.07606 0.80444  -0.7153306
 O1 0.296269 0.576128 0.30434  -0.7153306
 O1 0.296243 0.57618 0.80431  -0.7153306
 O1 0.796196 0.076056 0.30438  -0.7153306
 O1 0.796143 0.076065 0.80443  -0.7153306
 O1 0.796276 0.576133 0.30434  -0.7153306
 O1 0.79625 0.576182 0.80431  -0.7153306
 O2 0.204871 0.063104 0.27590  -0.8284626
 O2 0.204811 0.063093 0.77597  -0.8284626
 O2 0.204947 0.563096 0.27592  -0.8284626
 O2 0.204921 0.563153 0.7758  -0.8284626
 O2 0.704879 0.063106 0.275  -0.8284626
 O2 0.704819 0.063096 0.77597  -0.8284626
 O2 0.704956 0.563099 0.27592  -0.8284626
 O2 0.704929 0.563158 0.77588  -0.8284626
 O1 0.032139 0.10659 0.2235  -0.7153306
 O1 0.032091 0.106582 0.72361  -0.7153306
 O1 0.032144 0.606532 0.22370  -0.7153306
 O1 0.032119 0.606595 0.72367  -0.7153306
 O1 0.532138 0.106589 0.22355  -0.7153306
 O1 0.532091 0.106581 0.72361  -0.7153306
 O1 0.532145 0.606531 0.22369  -0.7153306
 O1 0.532119 0.606594 0.72366  -0.7153306
 O1 0.436746 0.080672 0.21074  -0.7153306
 O1 0.436694 0.080658 0.71081  -0.7153306
 O1 0.43679 0.58065 0.2107  -0.7153306
 O1 0.436764 0.580716 0.71075  -0.7153306
 O1 0.936751 0.080673 0.21073  -0.7153306
 O1 0.936699 0.08066 0.71080  -0.7153306
 O1 0.936795 0.580651 0.21078  -0.7153306
 O1 0.936768 0.580717 0.71075  -0.7153306
 O1 0.305793 0.098076 0.15445  -0.7153306
 O1 0.305738 0.098069 0.65453  -0.7153306
 O1 0.305768 0.597964 0.15450  -0.7153306
 O1 0.305741 0.598022 0.65446  -0.7153306
 O1 0.805799 0.098081 0.15445  -0.7153306
 O1 0.805745 0.098072 0.65453  -0.7153306
 O1 0.805776 0.597966 0.15450  -0.7153306
 O1 0.805748 0.598026 0.65446  -0.7153306
 O1 0.192076 0.096642 0.14780  -0.7153306
 O1 0.192023 0.09664 0.64787  -0.7153306
 O1 0.192018 0.596585 0.14787  -0.7153306
 O1 0.191989 0.596656 0.64782  -0.7153306
 O1 0.692083 0.096646 0.14780  -0.7153306
 O1 0.692029 0.096645 0.64787  -0.7153306
 O1 0.692023 0.596591 0.14787  -0.7153306
 O1 0.691998 0.596657 0.64782  -0.7153306
