#======================================================================

# CRYSTAL DATA

#----------------------------------------------------------------------

data_VESTA_phase_1


_pd_phase_name                         MOF
_cell_length_a                         17.92400
_cell_length_b                         17.97900
_cell_length_c                         13.77500
_cell_angle_alpha                      73.33100
_cell_angle_beta                       71.91100
_cell_angle_gamma                      81.63200
_symmetry_space_group_name_H-M         "P 1"
_symmetry_Int_Tables_number            1

loop_
_symmetry_equiv_pos_as_xyz
   "x, y, z"

loop_
   _atom_site_label
   _atom_site_fract_x
   _atom_site_fract_y
   _atom_site_fract_z
 _atom_site_charge
 Zn1 0.253355 0.078121 0.15176  0.9471415
 Zn1 0.253353 0.57811 0.15176  0.9471415
 Zn1 0.753348 0.078121 0.15176  0.9471415
 Zn1 0.753346 0.57811 0.15176  0.9471415
 Zn1 0.191432 0.05334 0.37640  0.9471415
 Zn1 0.19143 0.553328 0.37640  0.9471415
 Zn1 0.691425 0.05334 0.37640  0.9471415
 Zn1 0.691423 0.553328 0.37640  0.9471415
 H1 0.438477 0.1329 0.62161  0.0961837727273
 H1 0.438481 0.6329 0.62161  0.0961837727273
 H1 0.938469 0.1329 0.62161  0.0961837727273
 H1 0.938473 0.632899 0.62161  0.0961837727273
 H1 0.042972 0.125904 0.45374  0.0961837727273
 H1 0.042975 0.6259 0.45374  0.0961837727273
 H1 0.542965 0.125904 0.45374  0.0961837727273
 H1 0.542968 0.625901 0.45374  0.0961837727273
 H1 0.267168 0.496925 0.97846  0.0961837727273
 H1 0.267161 0.996914 0.97846  0.0961837727273
 H1 0.767163 0.496921 0.97847  0.0961837727273
 H1 0.767156 0.996909 0.97847  0.0961837727273
 H1 0.369918 0.480005 0.81420  0.0961837727273
 H1 0.36991 0.979992 0.81420  0.0961837727273
 H1 0.869913 0.479999 0.81421  0.0961837727273
 H1 0.869904 0.979987 0.81421  0.0961837727273
 H1 0.502378 0.147542 0.85061  0.0961837727273
 H1 0.502375 0.647537 0.85061  0.0961837727273
 H1 0.0 0.147545 0.85061  0.0961837727273
 H1 0.0 0.64754 0.85061  0.0961837727273
 H1 0.391843 0.160248 0.  0.0961837727273
 H1 0.391839 0.660241 0.  0.0961837727273
 H1 0.891833 0.160252 0.  0.0961837727273
 H1 0.891829 0.660244 0.  0.0961837727273
 H1 0.041471 0.443213 0.88095  0.0961837727273
 H1 0.041468 0.943201 0.88095  0.0961837727273
 H1 0.541463 0.443215 0.88095  0.0961837727273
 H1 0.541461 0.943203 0.88095  0.0961837727273
 H1 0.133019 0.359142 0.78299  0.0961837727273
 H1 0.133022 0.859134 0.78299  0.0961837727273
 H1 0.633011 0.359144 0.78299  0.0961837727273
 H1 0.633014 0.859135 0.78299  0.0961837727273
 H1 0.250138 0.481018 0.73844  0.0961837727273
 H1 0.250132 0.981017 0.73844  0.0961837727273
 H1 0.75013 0.481019 0.73844  0.0961837727273
 H1 0.750126 0.981017 0.73844  0.0961837727273
 H1 0.279257 0.388338 0.71165  0.0961837727273
 H1 0.279258 0.888337 0.71165  0.0961837727273
 H1 0.779249 0.388338 0.71165  0.0961837727273
 H1 0.779251 0.888337 0.7116  0.0961837727273
 H1 0.205393 0.413189 0.58381  0.0961837727273
 H1 0.205396 0.913183 0.58381  0.0961837727273
 H1 0.705387 0.413192 0.58381  0.0961837727273
 H1 0.70539 0.913185 0.58381  0.0961837727273
 H1 0.256936 0.496339 0.55165  0.0961837727273
 H1 0.256933 0.996336 0.55165  0.0961837727273
 H1 0.756929 0.496341 0.55165  0.0961837727273
 H1 0.756927 0.996338 0.5516  0.0961837727273
 H1 0.131158 0.454234 0.00804  0.0961837727273
 H1 0.131155 0.954226 0.00804  0.0961837727273
 H1 0.631153 0.454235 0.00804  0.0961837727273
 H1 0.63115 0.954228 0.00804  0.0961837727273
 H1 0.11603 0.057273 0.99341  0.0961837727273
 H1 0.116034 0.557258 0.99341  0.0961837727273
 H1 0.616026 0.057275 0.99341  0.0961837727273
 H1 0.616028 0.55726 0.99341  0.0961837727273
 H1 0.035741 0.00138 0.  0.0961837727273
 H1 0.035741 0.50137 0.  0.0961837727273
 H1 0.535736 0.001382 0.  0.0961837727273
 H1 0.535736 0.501371 0.  0.0961837727273
 H1 0.172016 0.249856 0.89880  0.0961837727273
 H1 0.17202 0.749849 0.89880  0.0961837727273
 H1 0.672006 0.249858 0.89880  0.0961837727273
 H1 0.672012 0.74985 0.89880  0.0961837727273
 H1 0.268261 0.286345 0.85259  0.0961837727273
 H1 0.268264 0.786342 0.8525  0.0961837727273
 H1 0.768252 0.286345 0.85259  0.0961837727273
 H1 0.768255 0.786342 0.85259  0.0961837727273
 H1 0.21734 0.263875 0.99073  0.0961837727273
 H1 0.217343 0.763871 0.99073  0.0961837727273
 H1 0.717331 0.263875 0.99073  0.0961837727273
 H1 0.717335 0.76387 0.99073  0.0961837727273
 H1 0.448755 0.040733 0.38306  0.0961837727273
 H1 0.448752 0.54073 0.38306  0.0961837727273
 H1 0.948747 0.040743 0.3830  0.0961837727273
 H1 0.948746 0.540718 0.3830  0.0961837727273
 H1 0.497828 0.093097 0.13984  0.0961837727273
 H1 0.497826 0.593088 0.1398  0.0961837727273
 H1 0.997821 0.0931 0.13983  0.0961837727273
 H1 0.997817 0.59309 0.13984  0.0961837727273
 H1 0.243752 0.337679 0.14129  0.0961837727273
 H1 0.243744 0.837668 0.14130  0.0961837727273
 H1 0.74374 0.33768 0.141  0.0961837727273
 H1 0.743734 0.837669 0.14130  0.0961837727273
 H1 0.198626 0.295438 0.3845  0.0961837727273
 H1 0.198637 0.795424 0.38457  0.0961837727273
 H1 0.698635 0.295436 0.3845  0.0961837727273
 H1 0.698624 0.795425 0.38457  0.0961837727273
 C1 0.133462 0.010755 0.62174  0.2872415
 C1 0.133461 0.510743 0.62174  0.2872415
 C1 0.633456 0.010757 0.62174  0.2872415
 C1 0.633454 0.510745 0.62174  0.2872415
 C2 0.078274 0.012011 0.71976  0.0248315
 C2 0.078273 0.511998 0.71976  0.0248315
 C2 0.578267 0.012011 0.71976  0.0248315
 C2 0.578266 0.511999 0.71976  0.0248315
 C2 0.006794 0.056563 0.72018  0.0248315
 C2 0.006795 0.556556 0.72018  0.0248315
 C2 0.506788 0.056565 0.72018  0.0248315
 C2 0.506789 0.556558 0.72018  0.0248315
 C3 0.493162 0.09787 0.62391  -0.203859928571
 C3 0.493164 0.597865 0.62391  -0.203859928571
 C3 0.993155 0.097871 0.62391  -0.203859928571
 C3 0.993157 0.597865 0.62391  -0.203859928571
 C4 0.050714 0.094492 0.53063  0.1833115
 C4 0.050716 0.594486 0.53063  0.1833115
 C4 0.550707 0.094493 0.53063  0.1833115
 C4 0.550709 0.594488 0.53063  0.1833115
 C4 0.319583 0.030045 0.94649  0.1833115
 C4 0.319584 0.530035 0.94649  0.1833115
 C4 0.819577 0.030042 0.94649  0.1833115
 C4 0.819578 0.530031 0.94649  0.1833115
 C3 0.377431 0.020481 0.85562  -0.203859928571
 C3 0.377432 0.520471 0.85562  -0.203859928571
 C3 0.877425 0.020478 0.85562  -0.203859928571
 C3 0.877426 0.520468 0.85562  -0.203859928571
 C2 0.444875 0.06274 0.81919  0.0248315
 C2 0.444875 0.562732 0.81919  0.0248315
 C2 0.944867 0.062738 0.81919  0.0248315
 C2 0.944867 0.56273 0.81919  0.0248315
 C3 0.450587 0.114189 0.87570  -0.203859928571
 C3 0.450585 0.614182 0.87570  -0.203859928571
 C3 0.950578 0.114191 0.87570  -0.203859928571
 C3 0.950576 0.614183 0.87570  -0.203859928571
 C4 0.389897 0.121292 0.96491  0.1833115
 C4 0.389894 0.621284 0.96491  0.1833115
 C4 0.889888 0.121293 0.96491  0.1833115
 C4 0.889886 0.621285 0.96491  0.1833115
 C5 0.095766 0.468168 0.82322  0.1588815
 C5 0.095763 0.968158 0.82322  0.1588815
 C5 0.595759 0.46817 0.82322  0.1588815
 C5 0.595756 0.96816 0.82322  0.1588815
 C5 0.158635 0.401403 0.8069  0.1588815
 C5 0.158634 0.901396 0.80693  0.1588815
 C5 0.658627 0.401405 0.80693  0.1588815
 C5 0.658627 0.901397 0.80693  0.1588815
 C6 0.230805 0.433367 0.7183  -0.2118985
 C6 0.230803 0.933364 0.7183  -0.2118985
 C6 0.730797 0.433368 0.7183  -0.2118985
 C6 0.730796 0.933364 0.71837  -0.2118985
 C6 0.210074 0.46266 0.61367  -0.2118985
 C6 0.210073 0.962655 0.61367  -0.2118985
 C6 0.710067 0.462662 0.61367  -0.2118985
 C6 0.710066 0.962656 0.61367  -0.2118985
 C7 0.099519 0.007717 0.9748  -0.0028885
 C7 0.09952 0.507703 0.97487  -0.0028885
 C7 0.599514 0.007718 0.9748  -0.0028885
 C7 0.599514 0.507704 0.97487  -0.0028885
 C7 0.210084 0.287285 0.91124  -0.0028885
 C7 0.210087 0.787279 0.91124  -0.0028885
 C7 0.710075 0.287285 0.91124  -0.0028885
 C7 0.710079 0.78728 0.91124  -0.0028885
 C8 0.361621 0.05609 0.29438  0.7104015
 C8 0.361618 0.556086 0.29438  0.7104015
 C8 0.861613 0.056098 0.29438  0.7104015
 C8 0.861611 0.556078 0.29438  0.7104015
 C3 0.44215 0.056464 0.3034  -0.203859928571
 C3 0.442148 0.556453 0.30347  -0.203859928571
 C3 0.942143 0.056466 0.3034  -0.203859928571
 C3 0.94214 0.556454 0.3034  -0.203859928571
 C3 0.004485 0.077003 0.21936  -0.203859928571
 C3 0.004484 0.576986 0.21936  -0.203859928571
 C3 0.504479 0.076998 0.21936  -0.203859928571
 C3 0.504475 0.576992 0.21936  -0.203859928571
 C8 0.084941 0.077708 0.228  0.7104015
 C8 0.084939 0.577693 0.22850  0.7104015
 C8 0.584934 0.077703 0.22850  0.7104015
 C8 0.584931 0.577696 0.22850  0.7104015
 C8 0.222618 0.216641 0.23445  0.7104015
 C8 0.222617 0.71663 0.23445  0.7104015
 C8 0.722613 0.216641 0.23445  0.7104015
 C8 0.722607 0.71663 0.23445  0.7104015
 C3 0.227069 0.301055 0.22196  -0.203859928571
 C3 0.227072 0.801042 0.22196  -0.203859928571
 C3 0.727069 0.301054 0.22196  -0.203859928571
 C3 0.727058 0.801044 0.22196  -0.203859928571
 C3 0.214503 0.332023 0.30383  -0.203859928571
 C3 0.214497 0.832012 0.30384  -0.203859928571
 C3 0.714494 0.332024 0.3038  -0.203859928571
 C3 0.714494 0.832011 0.3038  -0.203859928571
 C8 0.220704 0.41628 0.29066  0.7104015
 C8 0.220708 0.916267 0.29066  0.7104015
 C8 0.720705 0.416279 0.29066  0.7104015
 C8 0.720694 0.916268 0.2906  0.7104015
 N1 0.119077 0.05172 0.52922  -0.3211935
 N1 0.119076 0.551709 0.52922  -0.3211935
 N1 0.61907 0.05172 0.52922  -0.3211935
 N1 0.619069 0.55171 0.52922  -0.3211935
 N1 0.32548 0.079732 0.  -0.3211935
 N1 0.325478 0.579722 0.  -0.3211935
 N1 0.825472 0.079731 0.  -0.3211935
 N1 0.825471 0.579722 0.  -0.3211935
 O1 0.119465 0.024772 0.86142  -0.3427185
 O1 0.119466 0.524757 0.8614  -0.3427185
 O1 0.619459 0.024774 0.86142  -0.3427185
 O1 0.61946 0.524759 0.8614  -0.3427185
 O1 0.174905 0.364501 0.90531  -0.3427185
 O1 0.174905 0.864495 0.90531  -0.3427185
 O1 0.674897 0.364502 0.90531  -0.3427185
 O1 0.674897 0.864495 0.90531  -0.3427185
 O2 0.305707 0.052866 0.37975  -0.6121185
 O2 0.305704 0.552854 0.37975  -0.6121185
 O2 0.8057 0.052866 0.37975  -0.6121185
 O2 0.805698 0.552854 0.37975  -0.6121185
 O2 0.354185 0.059563 0.20442  -0.6121185
 O2 0.354182 0.559553 0.20442  -0.6121185
 O2 0.854177 0.059564 0.20442  -0.6121185
 O2 0.854175 0.559552 0.20442  -0.6121185
 O2 0.0937 0.059534 0.3207  -0.6121185
 O2 0.093697 0.559522 0.32078  -0.6121185
 O2 0.593692 0.059533 0.32078  -0.6121185
 O2 0.59369 0.559522 0.32078  -0.6121185
 O2 0.139395 0.095731 0.14154  -0.6121185
 O2 0.139392 0.595719 0.14154  -0.6121185
 O2 0.639387 0.095731 0.14154  -0.6121185
 O2 0.639385 0.59572 0.14154  -0.6121185
 O2 0.190539 0.174474 0.32567  -0.6121185
 O2 0.190537 0.674462 0.32567  -0.6121185
 O2 0.690532 0.174474 0.32567  -0.6121185
 O2 0.690529 0.674462 0.32567  -0.6121185
 O2 0.25302 0.193474 0.15001  -0.6121185
 O2 0.253017 0.693463 0.15001  -0.6121185
 O2 0.753012 0.193474 0.15001  -0.6121185
 O2 0.75301 0.693463 0.15001  -0.6121185
 O2 0.206635 0.437418 0.3759  -0.6121185
 O2 0.206633 0.937406 0.37598  -0.6121185
 O2 0.706629 0.437418 0.37598  -0.6121185
 O2 0.706626 0.937406 0.37598  -0.6121185
 O2 0.238532 0.460344 0.19707  -0.6121185
 O2 0.238528 0.960332 0.19707  -0.6121185
 O2 0.738525 0.460344 0.19707  -0.6121185
 O2 0.73852 0.960332 0.19707  -0.6121185
