#======================================================================

# CRYSTAL DATA

#----------------------------------------------------------------------

data_VESTA_phase_1


_pd_phase_name                         MOF
_cell_length_a                         14.01000
_cell_length_b                         20.56000
_cell_length_c                         20.56100
_cell_angle_alpha                      89.85000
_cell_angle_beta                       93.67300
_cell_angle_gamma                      86.35300
_symmetry_space_group_name_H-M         "P 1"
_symmetry_Int_Tables_number            1

loop_
_symmetry_equiv_pos_as_xyz
   "x, y, z"

loop_
   _atom_site_label
   _atom_site_fract_x
   _atom_site_fract_y
   _atom_site_fract_z
 _atom_site_charge
 Cd1 0.375021 0.287278 0.2872  1.15706706897
 Cd1 0.375011 0.287283 0.78727  1.15706706897
 Cd1 0.375022 0.787289 0.28726  1.15706706897
 Cd1 0.375013 0.787288 0.7872  1.15706706897
 Cd1 0.875015 0.287282 0.28726  1.15706706897
 Cd1 0.875012 0.287279 0.7872  1.15706706897
 Cd1 0.875019 0.787289 0.2872  1.15706706897
 Cd1 0.875012 0.787292 0.78727  1.15706706897
 Cd1 0.124985 0.212726 0.21275  1.15706706897
 Cd1 0.124985 0.212726 0.71276  1.15706706897
 Cd1 0.124991 0.712734 0.21275  1.15706706897
 Cd1 0.124981 0.712735 0.71276  1.15706706897
 Cd1 0.624988 0.212724 0.21275  1.15706706897
 Cd1 0.624977 0.212726 0.71276  1.15706706897
 Cd1 0.62499 0.712735 0.21275  1.15706706897
 Cd1 0.624985 0.712736 0.71276  1.15706706897
 H1 0.455057 0.170688 0.10863  0.133936443966
 H1 0.455039 0.170689 0.60864  0.133936443966
 H1 0.455052 0.670697 0.10863  0.133936443966
 H1 0.455049 0.670697 0.60864  0.133936443966
 H1 0.955046 0.17069 0.10863  0.133936443966
 H1 0.955052 0.170689 0.60864  0.133936443966
 H1 0.955059 0.670697 0.10863  0.133936443966
 H1 0.955048 0.670698 0.60864  0.133936443966
 H1 0.383079 0.364069 0.15021  0.133936443966
 H1 0.383069 0.364069 0.65022  0.133936443966
 H1 0.383084 0.864078 0.15021  0.133936443966
 H1 0.383073 0.864077 0.65022  0.133936443966
 H1 0.88309 0.364072 0.15021  0.133936443966
 H1 0.883075 0.364069 0.65022  0.133936443966
 H1 0.883092 0.86408 0.15021  0.133936443966
 H1 0.883081 0.86408 0.65022  0.133936443966
 H1 0.399797 0.187197 0.48959  0.133936443966
 H1 0.399782 0.187195 0.98960  0.133936443966
 H1 0.3998 0.687204 0.48959  0.133936443966
 H1 0.399794 0.687206 0.98960  0.133936443966
 H1 0.899793 0.187194 0.48959  0.133936443966
 H1 0.899791 0.1872 0.98960  0.133936443966
 H1 0.899804 0.687205 0.48959  0.133936443966
 H1 0.899792 0.687204 0.98960  0.133936443966
 H1 0.320812 0.387273 0.03181  0.133936443966
 H1 0.320822 0.387278 0.53182  0.133936443966
 H1 0.320831 0.887285 0.0318  0.133936443966
 H1 0.320817 0.887284 0.53182  0.133936443966
 H1 0.820841 0.387281 0.0318  0.133936443966
 H1 0.820812 0.387274 0.53182  0.133936443966
 H1 0.82083 0.887284 0.03180  0.133936443966
 H1 0.82083 0.887287 0.5318  0.133936443966
 H1 0.294982 0.108641 0.17070  0.133936443966
 H1 0.29498 0.10864 0.67071  0.133936443966
 H1 0.294987 0.608649 0.17070  0.133936443966
 H1 0.294967 0.608648 0.67071  0.133936443966
 H1 0.794983 0.10864 0.17070  0.133936443966
 H1 0.794974 0.108639 0.67071  0.133936443966
 H1 0.794986 0.608649 0.17070  0.133936443966
 H1 0.79498 0.608648 0.67071  0.133936443966
 H1 0.366929 0.150236 0.36410  0.133936443966
 H1 0.366925 0.150237 0.86411  0.133936443966
 H1 0.366933 0.650245 0.36410  0.133936443966
 H1 0.366934 0.650244 0.86411  0.133936443966
 H1 0.866938 0.150237 0.36410  0.133936443966
 H1 0.86693 0.150236 0.86411  0.133936443966
 H1 0.866939 0.650245 0.36410  0.133936443966
 H1 0.866942 0.650247 0.86411  0.133936443966
 H1 0.350266 0.489618 0.18722  0.133936443966
 H1 0.35027 0.489619 0.68722  0.133936443966
 H1 0.35027 0.989629 0.18721  0.133936443966
 H1 0.35026 0.989627 0.68723  0.133936443966
 H1 0.850277 0.48962 0.18721  0.133936443966
 H1 0.850266 0.489618 0.68723  0.133936443966
 H1 0.850275 0.989629 0.18721  0.133936443966
 H1 0.850274 0.98963 0.6872  0.133936443966
 H1 0.429185 0.031853 0.3873  0.133936443966
 H1 0.429174 0.031853 0.88734  0.133936443966
 H1 0.429182 0.531861 0.38733  0.133936443966
 H1 0.429207 0.531865 0.88733  0.133936443966
 H1 0.929197 0.031855 0.38732  0.133936443966
 H1 0.9292 0.031856 0.88733  0.133936443966
 H1 0.929199 0.531864 0.38732  0.133936443966
 H1 0.929198 0.531865 0.88733  0.133936443966
 H1 0.044962 0.329318 0.39138  0.133936443966
 H1 0.04496 0.329319 0.89139  0.133936443966
 H1 0.044971 0.829327 0.39138  0.133936443966
 H1 0.044956 0.829328 0.89139  0.133936443966
 H1 0.544971 0.329319 0.39138  0.133936443966
 H1 0.544954 0.32932 0.89139  0.133936443966
 H1 0.544968 0.829328 0.39138  0.133936443966
 H1 0.544965 0.829328 0.89139  0.133936443966
 H1 0.116924 0.135937 0.34980  0.133936443966
 H1 0.116921 0.135938 0.84981  0.133936443966
 H1 0.116934 0.635947 0.34979  0.133936443966
 H1 0.11693 0.635948 0.8498  0.133936443966
 H1 0.616931 0.135938 0.34979  0.133936443966
 H1 0.616928 0.13594 0.84981  0.133936443966
 H1 0.616944 0.63595 0.34979  0.133936443966
 H1 0.616933 0.635948 0.84980  0.133936443966
 H1 0.100223 0.312806 0.01042  0.133936443966
 H1 0.100218 0.312809 0.51043  0.133936443966
 H1 0.100228 0.812816 0.01042  0.133936443966
 H1 0.100216 0.812814 0.51043  0.133936443966
 H1 0.600229 0.31281 0.01042  0.133936443966
 H1 0.60022 0.312808 0.51043  0.133936443966
 H1 0.600231 0.812815 0.01042  0.133936443966
 H1 0.60022 0.812817 0.51043  0.133936443966
 H1 0.179181 0.112727 0.46820  0.133936443966
 H1 0.179174 0.112728 0.96821  0.133936443966
 H1 0.179181 0.612734 0.468  0.133936443966
 H1 0.179192 0.61274 0.9682  0.133936443966
 H1 0.679181 0.112726 0.46820  0.133936443966
 H1 0.679192 0.112733 0.96821  0.133936443966
 H1 0.679198 0.612739 0.46819  0.133936443966
 H1 0.679189 0.612738 0.9682  0.133936443966
 H1 0.205028 0.391363 0.32930  0.133936443966
 H1 0.20503 0.391363 0.82931  0.133936443966
 H1 0.205033 0.891373 0.32930  0.133936443966
 H1 0.205029 0.891371 0.82931  0.133936443966
 H1 0.705038 0.391364 0.32930  0.133936443966
 H1 0.705031 0.391363 0.82931  0.133936443966
 H1 0.70504 0.891372 0.32930  0.133936443966
 H1 0.705036 0.891372 0.82931  0.133936443966
 H1 0.133079 0.349771 0.13590  0.133936443966
 H1 0.133065 0.349772 0.6359  0.133936443966
 H1 0.133077 0.84978 0.13590  0.133936443966
 H1 0.133075 0.849782 0.63591  0.133936443966
 H1 0.63308 0.349773 0.13590  0.133936443966
 H1 0.633075 0.349773 0.63591  0.133936443966
 H1 0.633088 0.849783 0.13590  0.133936443966
 H1 0.633076 0.849782 0.63591  0.133936443966
 H1 0.14975 0.010385 0.31279  0.133936443966
 H1 0.149741 0.010383 0.8128  0.133936443966
 H1 0.149744 0.510394 0.31279  0.133936443966
 H1 0.149747 0.510394 0.81280  0.133936443966
 H1 0.649749 0.010384 0.31279  0.133936443966
 H1 0.649749 0.010384 0.81280  0.133936443966
 H1 0.649751 0.510395 0.31279  0.133936443966
 H1 0.649749 0.510394 0.81280  0.133936443966
 H1 0.070821 0.468154 0.11268  0.133936443966
 H1 0.070807 0.468155 0.61270  0.133936443966
 H1 0.070821 0.968163 0.11268  0.133936443966
 H1 0.070814 0.968165 0.61269  0.133936443966
 H1 0.570819 0.468155 0.11268  0.133936443966
 H1 0.570819 0.468156 0.61269  0.133936443966
 H1 0.570823 0.968165 0.11268  0.133936443966
 H1 0.570816 0.968165 0.612  0.133936443966
 C1 0.35719 0.288998 0.00144  -0.0734429310345
 C1 0.357202 0.289005 0.50145  -0.0734429310345
 C1 0.357209 0.78901 0.00144  -0.0734429310345
 C1 0.357201 0.78901 0.50145  -0.0734429310345
 C1 0.857207 0.289005 0.00144  -0.0734429310345
 C1 0.857194 0.289001 0.50145  -0.0734429310345
 C1 0.857193 0.789007 0.00144  -0.0734429310345
 C1 0.8572 0.789012 0.50145  -0.0734429310345
 C2 0.424364 0.21698 0.08816  -0.0177941810345
 C2 0.424362 0.216984 0.58817  -0.0177941810345
 C2 0.424371 0.716991 0.0881  -0.0177941810345
 C2 0.424367 0.716991 0.5881  -0.0177941810345
 C2 0.924367 0.216984 0.0881  -0.0177941810345
 C2 0.924364 0.216981 0.5881  -0.0177941810345
 C2 0.924364 0.716989 0.08816  -0.0177941810345
 C2 0.924365 0.716992 0.5881  -0.0177941810345
 C2 0.382895 0.327891 0.1116  -0.0177941810345
 C2 0.382896 0.327894 0.6116  -0.0177941810345
 C2 0.382906 0.827902 0.11160  -0.0177941810345
 C2 0.382897 0.827901 0.6116  -0.0177941810345
 C2 0.882909 0.327896 0.11160  -0.0177941810345
 C2 0.882895 0.327892 0.6116  -0.0177941810345
 C2 0.882902 0.827901 0.11160  -0.0177941810345
 C2 0.882901 0.827903 0.61161  -0.0177941810345
 C3 0.330403 0.302904 0.43002  0.645837068966
 C3 0.330368 0.302897 0.93004  0.645837068966
 C3 0.33039 0.802907 0.43002  0.645837068966
 C3 0.330393 0.802911 0.93003  0.645837068966
 C3 0.830373 0.302895 0.4300  0.645837068966
 C3 0.8304 0.302908 0.93003  0.645837068966
 C3 0.830406 0.802913 0.43002  0.645837068966
 C3 0.830392 0.802912 0.93003  0.645837068966
 C4 0.393878 0.227488 0.02351  -0.0850854310345
 C4 0.393889 0.227494 0.52352  -0.0850854310345
 C4 0.393894 0.727499 0.02351  -0.0850854310345
 C4 0.393884 0.727499 0.52352  -0.0850854310345
 C4 0.893896 0.227495 0.0235  -0.0850854310345
 C4 0.893875 0.227489 0.52352  -0.0850854310345
 C4 0.893895 0.727499 0.02351  -0.0850854310345
 C4 0.893896 0.727502 0.5235  -0.0850854310345
 C4 0.350199 0.339012 0.04742  -0.0850854310345
 C4 0.350214 0.339019 0.54743  -0.0850854310345
 C4 0.35022 0.839025 0.04742  -0.0850854310345
 C4 0.350205 0.839024 0.54743  -0.0850854310345
 C4 0.85023 0.339021 0.04742  -0.0850854310345
 C4 0.850196 0.339013 0.54743  -0.0850854310345
 C4 0.850222 0.839025 0.04742  -0.0850854310345
 C4 0.850222 0.839028 0.54743  -0.0850854310345
 C1 0.392833 0.00147 0.28904  -0.0734429310345
 C1 0.392827 0.00147 0.78906  -0.0734429310345
 C1 0.392832 0.501479 0.28904  -0.0734429310345
 C1 0.39285 0.501481 0.78905  -0.0734429310345
 C1 0.892839 0.001471 0.28904  -0.0734429310345
 C1 0.892856 0.001474 0.78905  -0.0734429310345
 C1 0.892847 0.501481 0.28904  -0.0734429310345
 C1 0.892838 0.50148 0.78905  -0.0734429310345
 C2 0.325658 0.088169 0.21700  -0.0177941810345
 C2 0.325654 0.088169 0.71702  -0.0177941810345
 C2 0.325661 0.588178 0.21700  -0.0177941810345
 C2 0.325659 0.588178 0.71701  -0.0177941810345
 C2 0.825661 0.08817 0.21700  -0.0177941810345
 C2 0.825667 0.088171 0.71701  -0.0177941810345
 C2 0.825668 0.588179 0.21700  -0.0177941810345
 C2 0.825659 0.588178 0.71701  -0.0177941810345
 C2 0.367104 0.111631 0.32793  -0.0177941810345
 C2 0.367098 0.111632 0.82794  -0.0177941810345
 C2 0.367105 0.61164 0.32793  -0.0177941810345
 C2 0.367116 0.611642 0.82793  -0.0177941810345
 C2 0.867111 0.111632 0.32792  -0.0177941810345
 C2 0.867117 0.111634 0.82793  -0.0177941810345
 C2 0.867116 0.611642 0.32792  -0.0177941810345
 C2 0.867113 0.611642 0.8279  -0.0177941810345
 C3 0.419611 0.430053 0.30294  0.645837068966
 C3 0.419643 0.430056 0.80294  0.645837068966
 C3 0.419623 0.930064 0.30294  0.645837068966
 C3 0.419604 0.930063 0.8029  0.645837068966
 C3 0.919626 0.430055 0.30294  0.645837068966
 C3 0.919618 0.430054 0.80295  0.645837068966
 C3 0.919631 0.930064 0.3029  0.645837068966
 C3 0.919622 0.930065 0.80295  0.645837068966
 C4 0.356165 0.023533 0.22752  -0.0850854310345
 C4 0.356151 0.023531 0.72753  -0.0850854310345
 C4 0.35616 0.52354 0.22752  -0.0850854310345
 C4 0.356173 0.523543 0.72753  -0.0850854310345
 C4 0.856172 0.023533 0.22752  -0.0850854310345
 C4 0.856166 0.023533 0.72753  -0.0850854310345
 C4 0.856173 0.523542 0.22752  -0.0850854310345
 C4 0.856163 0.523541 0.72753  -0.0850854310345
 C4 0.399808 0.047459 0.33905  -0.0850854310345
 C4 0.399792 0.047458 0.83907  -0.0850854310345
 C4 0.399801 0.547467 0.33906  -0.0850854310345
 C4 0.399828 0.547471 0.83906  -0.0850854310345
 C4 0.899818 0.04746 0.33905  -0.0850854310345
 C4 0.899815 0.047461 0.83906  -0.0850854310345
 C4 0.899818 0.547469 0.33905  -0.0850854310345
 C4 0.899814 0.547469 0.83906  -0.0850854310345
 C1 0.142815 0.211002 0.49856  -0.0734429310345
 C1 0.1428 0.211001 0.9985  -0.0734429310345
 C1 0.142797 0.711006 0.4985  -0.0734429310345
 C1 0.142814 0.711013 0.99857  -0.0734429310345
 C1 0.642802 0.210999 0.4985  -0.0734429310345
 C1 0.642815 0.211006 0.99857  -0.0734429310345
 C1 0.642812 0.71101 0.49856  -0.0734429310345
 C1 0.642812 0.711011 0.99857  -0.0734429310345
 C2 0.07565 0.283025 0.41185  -0.0177941810345
 C2 0.075639 0.283025 0.91186  -0.0177941810345
 C2 0.075643 0.783031 0.41185  -0.0177941810345
 C2 0.075646 0.783035 0.91186  -0.0177941810345
 C2 0.575645 0.283023 0.41185  -0.0177941810345
 C2 0.575645 0.283028 0.91186  -0.0177941810345
 C2 0.575649 0.783034 0.41185  -0.0177941810345
 C2 0.575648 0.783034 0.91186  -0.0177941810345
 C2 0.117109 0.172114 0.38840  -0.0177941810345
 C2 0.117099 0.172113 0.88841  -0.0177941810345
 C2 0.117105 0.67212 0.38840  -0.0177941810345
 C2 0.117112 0.672125 0.88841  -0.0177941810345
 C2 0.617105 0.172113 0.38840  -0.0177941810345
 C2 0.617111 0.172117 0.88841  -0.0177941810345
 C2 0.617118 0.672124 0.38840  -0.0177941810345
 C2 0.617111 0.672124 0.88841  -0.0177941810345
 C3 0.16961 0.197099 0.06998  0.645837068966
 C3 0.169597 0.197097 0.56999  0.645837068966
 C3 0.169617 0.697108 0.06998  0.645837068966
 C3 0.169602 0.697107 0.56999  0.645837068966
 C3 0.66962 0.197103 0.06998  0.645837068966
 C3 0.669604 0.1971 0.56999  0.645837068966
 C3 0.669611 0.697106 0.06998  0.645837068966
 C3 0.669604 0.697108 0.56999  0.645837068966
 C4 0.106121 0.272512 0.47650  -0.0850854310345
 C4 0.106119 0.272514 0.97651  -0.0850854310345
 C4 0.106126 0.77252 0.47650  -0.0850854310345
 C4 0.106126 0.772524 0.97651  -0.0850854310345
 C4 0.606126 0.272513 0.47650  -0.0850854310345
 C4 0.606128 0.272517 0.97651  -0.0850854310345
 C4 0.606128 0.772522 0.47650  -0.0850854310345
 C4 0.606125 0.772523 0.97651  -0.0850854310345
 C4 0.149789 0.160986 0.45258  -0.0850854310345
 C4 0.149787 0.160988 0.95259  -0.0850854310345
 C4 0.149795 0.660995 0.45258  -0.0850854310345
 C4 0.149802 0.661 0.95259  -0.0850854310345
 C4 0.649794 0.160987 0.45258  -0.0850854310345
 C4 0.649803 0.160993 0.95259  -0.0850854310345
 C4 0.649805 0.660999 0.45258  -0.0850854310345
 C4 0.649797 0.660998 0.95259  -0.0850854310345
 C1 0.10717 0.498535 0.2109  -0.0734429310345
 C1 0.107161 0.498535 0.71098  -0.0734429310345
 C1 0.107171 0.998544 0.2109  -0.0734429310345
 C1 0.107159 0.998544 0.71098  -0.0734429310345
 C1 0.607165 0.498535 0.21097  -0.0734429310345
 C1 0.607173 0.498536 0.71098  -0.0734429310345
 C1 0.607158 0.998543 0.21097  -0.0734429310345
 C1 0.607167 0.998545 0.71098  -0.0734429310345
 C2 0.174349 0.411835 0.28300  -0.0177941810345
 C2 0.174344 0.411835 0.78301  -0.0177941810345
 C2 0.174352 0.911844 0.28300  -0.0177941810345
 C2 0.174342 0.911843 0.7830  -0.0177941810345
 C2 0.67435 0.411835 0.28300  -0.0177941810345
 C2 0.674352 0.411835 0.78301  -0.0177941810345
 C2 0.674347 0.911843 0.28300  -0.0177941810345
 C2 0.674351 0.911844 0.78301  -0.0177941810345
 C2 0.132901 0.388375 0.17208  -0.0177941810345
 C2 0.132888 0.388375 0.67209  -0.0177941810345
 C2 0.1329 0.888384 0.17208  -0.0177941810345
 C2 0.132893 0.888384 0.67209  -0.0177941810345
 C2 0.632899 0.388375 0.17208  -0.0177941810345
 C2 0.6329 0.388376 0.67209  -0.0177941810345
 C2 0.632899 0.888383 0.17208  -0.0177941810345
 C2 0.632898 0.888385 0.67209  -0.0177941810345
 C3 0.080386 0.069952 0.19707  0.645837068966
 C3 0.080379 0.069951 0.69708  0.645837068966
 C3 0.080378 0.56996 0.19707  0.645837068966
 C3 0.080382 0.569961 0.69708  0.645837068966
 C3 0.580387 0.069951 0.19707  0.645837068966
 C3 0.580374 0.069952 0.6970  0.645837068966
 C3 0.58038 0.569961 0.19707  0.645837068966
 C3 0.580374 0.569961 0.69708  0.645837068966
 C4 0.143846 0.476473 0.27249  -0.0850854310345
 C4 0.143847 0.476473 0.77250  -0.0850854310345
 C4 0.143853 0.976483 0.27249  -0.0850854310345
 C4 0.143846 0.976482 0.77250  -0.0850854310345
 C4 0.643852 0.476474 0.27249  -0.0850854310345
 C4 0.643847 0.476473 0.77250  -0.0850854310345
 C4 0.643855 0.976483 0.27249  -0.0850854310345
 C4 0.643848 0.976482 0.77250  -0.0850854310345
 C4 0.1002 0.452548 0.16095  -0.0850854310345
 C4 0.100193 0.452549 0.66096  -0.0850854310345
 C4 0.100203 0.952557 0.16095  -0.0850854310345
 C4 0.100198 0.952558 0.66096  -0.0850854310345
 C4 0.600202 0.452549 0.16095  -0.0850854310345
 C4 0.600197 0.452549 0.66096  -0.0850854310345
 C4 0.600208 0.952558 0.16095  -0.0850854310345
 C4 0.600196 0.952558 0.66096  -0.0850854310345
 N1 0.420864 0.267509 0.13071  0.343597068966
 N1 0.420872 0.267514 0.63072  0.343597068966
 N1 0.420878 0.76752 0.13071  0.343597068966
 N1 0.420871 0.76752 0.63072  0.343597068966
 N1 0.920877 0.267514 0.13071  0.343597068966
 N1 0.920864 0.26751 0.63072  0.343597068966
 N1 0.920866 0.767518 0.13071  0.343597068966
 N1 0.92087 0.767521 0.63072  0.343597068966
 N1 0.329149 0.130727 0.26753  0.343597068966
 N1 0.329142 0.130728 0.76754  0.343597068966
 N1 0.329149 0.630736 0.26753  0.343597068966
 N1 0.329162 0.630738 0.76754  0.343597068966
 N1 0.829153 0.130728 0.26753  0.343597068966
 N1 0.829165 0.13073 0.76754  0.343597068966
 N1 0.82916 0.630738 0.26753  0.343597068966
 N1 0.829153 0.630737 0.76754  0.343597068966
 N1 0.079139 0.232496 0.36930  0.343597068966
 N1 0.079127 0.232496 0.86931  0.343597068966
 N1 0.079127 0.732502 0.36930  0.343597068966
 N1 0.079139 0.732507 0.86931  0.343597068966
 N1 0.579129 0.232494 0.36930  0.343597068966
 N1 0.579139 0.232499 0.86931  0.343597068966
 N1 0.579139 0.732505 0.36930  0.343597068966
 N1 0.579137 0.732506 0.86931  0.343597068966
 N1 0.170854 0.369278 0.23247  0.343597068966
 N1 0.170845 0.369277 0.73249  0.343597068966
 N1 0.170855 0.869286 0.23247  0.343597068966
 N1 0.170845 0.869286 0.73249  0.343597068966
 N1 0.67085 0.369277 0.2324  0.343597068966
 N1 0.670854 0.369278 0.7324  0.343597068966
 N1 0.670846 0.869285 0.23248  0.343597068966
 N1 0.67085 0.869286 0.73249  0.343597068966
 O1 0.2833 0.354499 0.4141  -0.575417931034
 O1 0.283321 0.354512 0.91413  -0.575417931034
 O1 0.283313 0.854512 0.41412  -0.575417931034
 O1 0.283303 0.854511 0.91413  -0.575417931034
 O1 0.783325 0.35451 0.41412  -0.575417931034
 O1 0.783298 0.354504 0.9141  -0.575417931034
 O1 0.783306 0.854509 0.4141  -0.575417931034
 O1 0.783311 0.854515 0.9141  -0.575417931034
 O2 0.457983 0.258111 0.1915  -0.579530431034
 O2 0.457972 0.258104 0.69157  -0.579530431034
 O2 0.457981 0.758114 0.1915  -0.579530431034
 O2 0.457973 0.758116 0.69157  -0.579530431034
 O2 0.95798 0.258103 0.1915  -0.579530431034
 O2 0.957973 0.258111 0.69157  -0.579530431034
 O2 0.957991 0.758116 0.19155  -0.579530431034
 O2 0.957979 0.758114 0.6915  -0.579530431034
 O3 0.362858 0.258181 0.39126  -0.669562931034
 O3 0.362866 0.258187 0.89128  -0.669562931034
 O3 0.362867 0.758191 0.3912  -0.669562931034
 O3 0.362859 0.758192 0.89127  -0.669562931034
 O3 0.862872 0.258186 0.39127  -0.669562931034
 O3 0.86285 0.258183 0.89127  -0.669562931034
 O3 0.862859 0.75819 0.39126  -0.669562931034
 O3 0.862856 0.758192 0.8912  -0.669562931034
 O1 0.466658 0.414155 0.35457  -0.575417931034
 O1 0.466621 0.414153 0.85459  -0.575417931034
 O1 0.466651 0.914164 0.35457  -0.575417931034
 O1 0.466654 0.914166 0.85458  -0.575417931034
 O1 0.966645 0.414155 0.35457  -0.575417931034
 O1 0.966643 0.414155 0.85458  -0.575417931034
 O1 0.966646 0.914164 0.35457  -0.575417931034
 O1 0.966633 0.914165 0.85459  -0.575417931034
 O2 0.292017 0.191557 0.25811  -0.579530431034
 O2 0.292011 0.191556 0.75812  -0.579530431034
 O2 0.292018 0.691565 0.25811  -0.579530431034
 O2 0.292008 0.691564 0.75813  -0.579530431034
 O2 0.792018 0.191557 0.2581  -0.579530431034
 O2 0.792001 0.191553 0.75813  -0.579530431034
 O2 0.792016 0.691565 0.25811  -0.579530431034
 O2 0.792013 0.691565 0.75812  -0.579530431034
 O3 0.387184 0.391294 0.2581  -0.669562931034
 O3 0.387164 0.391298 0.75820  -0.669562931034
 O3 0.387179 0.891305 0.25819  -0.669562931034
 O3 0.387183 0.891304 0.75820  -0.669562931034
 O3 0.887179 0.391297 0.25819  -0.669562931034
 O3 0.887175 0.391296 0.75820  -0.669562931034
 O3 0.887176 0.891306 0.25819  -0.669562931034
 O3 0.887176 0.891307 0.75820  -0.669562931034
 O1 0.216684 0.145493 0.08588  -0.575417931034
 O1 0.21668 0.145495 0.58589  -0.575417931034
 O1 0.21668 0.645498 0.08588  -0.575417931034
 O1 0.216687 0.645506 0.58589  -0.575417931034
 O1 0.716677 0.145491 0.08588  -0.575417931034
 O1 0.716681 0.145496 0.58589  -0.575417931034
 O1 0.716686 0.645501 0.08588  -0.575417931034
 O1 0.716684 0.645505 0.58589  -0.575417931034
 O2 0.042019 0.241904 0.30845  -0.579530431034
 O2 0.042021 0.241905 0.80846  -0.579530431034
 O2 0.042035 0.741915 0.30845  -0.579530431034
 O2 0.04202 0.741912 0.80846  -0.579530431034
 O2 0.54203 0.241905 0.30845  -0.579530431034
 O2 0.542017 0.241902 0.80846  -0.579530431034
 O2 0.542029 0.741914 0.30845  -0.579530431034
 O2 0.542021 0.741914 0.80846  -0.579530431034
 O3 0.137141 0.24182 0.10874  -0.669562931034
 O3 0.137141 0.241822 0.60875  -0.669562931034
 O3 0.137142 0.741828 0.10874  -0.669562931034
 O3 0.13714 0.74183 0.60875  -0.669562931034
 O3 0.637137 0.241819 0.10874  -0.669562931034
 O3 0.637134 0.241821 0.60875  -0.669562931034
 O3 0.637144 0.741829 0.10874  -0.669562931034
 O3 0.637139 0.741831 0.60875  -0.669562931034
 O1 0.033345 0.085849 0.14544  -0.575417931034
 O1 0.033344 0.08585 0.64545  -0.575417931034
 O1 0.033352 0.585859 0.14544  -0.575417931034
 O1 0.033341 0.585859 0.64545  -0.575417931034
 O1 0.533351 0.085849 0.14544  -0.575417931034
 O1 0.533344 0.08585 0.64545  -0.575417931034
 O1 0.533353 0.585859 0.14544  -0.575417931034
 O1 0.533345 0.58586 0.64545  -0.575417931034
 O2 0.20799 0.308449 0.24189  -0.579530431034
 O2 0.207987 0.30845 0.74190  -0.579530431034
 O2 0.207993 0.808458 0.24189  -0.579530431034
 O2 0.207992 0.80846 0.74190  -0.579530431034
 O2 0.707995 0.30845 0.24189  -0.579530431034
 O2 0.707983 0.308448 0.74190  -0.579530431034
 O2 0.708003 0.808461 0.24189  -0.579530431034
 O2 0.707989 0.808458 0.74190  -0.579530431034
 O3 0.112819 0.108712 0.24182  -0.669562931034
 O3 0.112816 0.108712 0.74183  -0.669562931034
 O3 0.112824 0.60872 0.24182  -0.669562931034
 O3 0.112816 0.608722 0.74183  -0.669562931034
 O3 0.612818 0.108711 0.24182  -0.669562931034
 O3 0.61282 0.108712 0.74183  -0.669562931034
 O3 0.612824 0.608721 0.24182  -0.669562931034
 O3 0.612822 0.608722 0.74183  -0.669562931034
