#======================================================================

# CRYSTAL DATA

#----------------------------------------------------------------------

data_VESTA_phase_1


_pd_phase_name                         MOF
_cell_length_a                         14.82600
_cell_length_b                         21.75900
_cell_length_c                         12.74800
_cell_angle_alpha                      107.62200
_cell_angle_beta                       89.99700
_cell_angle_gamma                      90.00000
_symmetry_space_group_name_H-M         "P 1"
_symmetry_Int_Tables_number            1

loop_
_symmetry_equiv_pos_as_xyz
   "x, y, z"

loop_
   _atom_site_label
   _atom_site_fract_x
   _atom_site_fract_y
   _atom_site_fract_z
 _atom_site_charge
 Zn1 1e-06 1e-06 0.9997  0.853671627907
 Zn1 2e-06 0.499169 0.  0.853671627907
 Zn1 0.499995 0.999986 0.00021  0.853671627907
 Zn1 0.5 0.500802 0.99995  0.853671627907
 H1 0.105181 0.30898 0.02146  0.10453496124
 H1 0.104556 0.809058 0.02178  0.10453496124
 H1 0.604377 0.308769 0.0209  0.10453496124
 H1 0.605005 0.808835 0.0213  0.10453496124
 H1 0.105015 0.191124 0.97864  0.10453496124
 H1 0.10439 0.691191 0.97898  0.10453496124
 H1 0.604556 0.190901 0.97816  0.10453496124
 H1 0.605183 0.69098 0.97849  0.10453496124
 H1 0.395444 0.190904 0.97818  0.10453496124
 H1 0.39482 0.690983 0.97851  0.10453496124
 H1 0.894985 0.191127 0.97866  0.10453496124
 H1 0.895612 0.691193 0.97899  0.10453496124
 H1 0.39561 0.308772 0.02  0.10453496124
 H1 0.394985 0.808838 0.02132  0.10453496124
 H1 0.894806 0.308983 0.02148  0.10453496124
 H1 0.895434 0.80906 0.02180  0.10453496124
 H1 4e-06 0.48541 0.75645  0.10453496124
 H1 0.999996 0.985492 0.75560  0.10453496124
 H1 0.499993 0.48596 0.755  0.10453496124
 H1 0.500002 0.985586 0.7563  0.10453496124
 H1 7e-06 0.399939 0.57235  0.10453496124
 H1 6e-06 0.899759 0.5718  0.10453496124
 H1 0.499997 0.400115 0.57195  0.10453496124
 H1 0.499999 0.89987 0.57250  0.10453496124
 H1 3e-06 0.257852 0.74780  0.10453496124
 H1 8e-06 0.758172 0.74829  0.10453496124
 H1 0.499996 0.258727 0.7488  0.10453496124
 H1 0.499993 0.758228 0.74885  0.10453496124
 H1 1e-06 0.349399 0.92257  0.10453496124
 H1 0.999998 0.849961 0.92268  0.10453496124
 H1 0.499993 0.350632 0.92306  0.10453496124
 H1 0.499996 0.850015 0.92331  0.10453496124
 H1 3e-06 0.014382 0.24364  0.10453496124
 H1 8e-06 0.514006 0.2443  0.10453496124
 H1 0.499996 0.014478 0.24436  0.10453496124
 H1 0.499995 0.514553 0.24353  0.10453496124
 H1 2e-06 0.100097 0.4274  0.10453496124
 H1 0.999998 0.599854 0.42803  0.10453496124
 H1 0.499993 0.100212 0.42813  0.10453496124
 H1 0.499996 0.600028 0.42763  0.10453496124
 H1 3e-06 0.241743 0.25112  0.10453496124
 H1 0.0 0.741236 0.25116  0.10453496124
 H1 0.499996 0.241799 0.25167  0.10453496124
 H1 0.499996 0.742109 0.25217  0.10453496124
 H1 4e-06 0.149956 0.07666  0.10453496124
 H1 1e-05 0.649327 0.07691  0.10453496124
 H1 0.499999 0.15001 0.07728  0.10453496124
 H1 0.499996 0.650558 0.07740  0.10453496124
 C1 0.170616 0.423714 0.05741  0.425036627907
 C1 0.170295 0.923938 0.05730  0.425036627907
 C1 0.670077 0.424006 0.05715  0.425036627907
 C1 0.670397 0.923876 0.05749  0.425036627907
 C2 0.169362 0.283346 0.01164  -0.176232122093
 C2 0.168737 0.783423 0.01197  -0.176232122093
 C2 0.668632 0.283235 0.01139  -0.176232122093
 C2 0.669258 0.783301 0.01171  -0.176232122093
 C1 0.170409 0.076086 0.94246  0.425036627907
 C1 0.170093 0.575955 0.9428  0.425036627907
 C1 0.670297 0.076024 0.94265  0.425036627907
 C1 0.670623 0.576247 0.94256  0.425036627907
 C2 0.169266 0.21666 0.98825  -0.176232122093
 C2 0.168643 0.716726 0.98857  -0.176232122093
 C2 0.668735 0.216538 0.98798  -0.176232122093
 C2 0.669362 0.716615 0.9883  -0.176232122093
 C1 0.329706 0.076025 0.94265  0.425036627907
 C1 0.329384 0.576248 0.94257  0.425036627907
 C1 0.829594 0.076087 0.94246  0.425036627907
 C1 0.829912 0.575955 0.94283  0.425036627907
 C2 0.331264 0.21654 0.98800  -0.176232122093
 C2 0.330639 0.716616 0.98832  -0.176232122093
 C2 0.830732 0.216661 0.98825  -0.176232122093
 C2 0.831358 0.716727 0.98858  -0.176232122093
 C1 0.329907 0.424008 0.05715  0.425036627907
 C1 0.32959 0.923878 0.05749  0.425036627907
 C1 0.829367 0.423715 0.0574  0.425036627907
 C1 0.829693 0.923938 0.05730  0.425036627907
 C2 0.331357 0.283236 0.01139  -0.176232122093
 C2 0.330734 0.783303 0.01173  -0.176232122093
 C2 0.830628 0.283347 0.01166  -0.176232122093
 C2 0.831255 0.783423 0.01197  -0.176232122093
 C3 0.250385 0.389071 0.04691  -0.0335117054264
 C3 0.249904 0.889129 0.04711  -0.0335117054264
 C3 0.7496 0.38907 0.04692  -0.0335117054264
 C3 0.750085 0.889128 0.04711  -0.0335117054264
 C3 0.250405 0.318555 0.0235  -0.0335117054264
 C3 0.249785 0.818621 0.02380  -0.0335117054264
 C3 0.749582 0.318554 0.02352  -0.0335117054264
 C3 0.750206 0.818621 0.02381  -0.0335117054264
 C3 0.250097 0.110833 0.95284  -0.0335117054264
 C3 0.249615 0.610892 0.95306  -0.0335117054264
 C3 0.749905 0.110833 0.95284  -0.0335117054264
 C3 0.750389 0.610892 0.9530  -0.0335117054264
 C3 0.250216 0.181341 0.97615  -0.0335117054264
 C3 0.249595 0.681408 0.9764  -0.0335117054264
 C3 0.749784 0.181341 0.97615  -0.0335117054264
 C3 0.750407 0.681407 0.9764  -0.0335117054264
 C4 5e-06 0.434249 0.74960  0.163196627907
 C4 3.7e-05 0.934373 0.74907  0.163196627907
 C4 0.500017 0.434857 0.74919  0.163196627907
 C4 0.499998 0.93446 0.74974  0.163196627907
 C2 4e-06 0.386832 0.6482  -0.176232122093
 C2 0.99997 0.886803 0.64790  -0.176232122093
 C2 0.499976 0.387228 0.64808  -0.176232122093
 C2 0.500001 0.886911 0.64856  -0.176232122093
 C3 6e-06 0.321438 0.64477  -0.0335117054264
 C3 4.2e-05 0.821459 0.64474  -0.0335117054264
 C3 0.500018 0.32191 0.64507  -0.0335117054264
 C3 0.499993 0.821569 0.645  -0.0335117054264
 C5 4e-06 0.271496 0.54331  -0.115613372093
 C5 0.999991 0.771358 0.54344  -0.115613372093
 C5 0.499988 0.271769 0.54382  -0.115613372093
 C5 0.499997 0.771521 0.54407  -0.115613372093
 C2 2e-06 0.307509 0.74579  -0.176232122093
 C2 0.999971 0.807769 0.74597  -0.176232122093
 C2 0.499976 0.308303 0.74637  -0.176232122093
 C2 0.499998 0.807835 0.74658  -0.176232122093
 C4 3e-06 0.3582 0.84294  0.163196627907
 C4 0.0 0.858608 0.84293  0.163196627907
 C4 0.500017 0.359203 0.84325  0.163196627907
 C4 0.499995 0.858658 0.84356  0.163196627907
 C4 0.999991 0.065508 0.25022  0.163196627907
 C4 0.999961 0.565108 0.25079  0.163196627907
 C4 0.499993 0.065598 0.25089  0.163196627907
 C4 0.500007 0.565714 0.25038  0.163196627907
 C2 1.2e-05 0.113057 0.35140  -0.176232122093
 C2 4e-05 0.61274 0.351  -0.176232122093
 C2 0.499998 0.113167 0.35206  -0.176232122093
 C2 0.499986 0.613132 0.35170  -0.176232122093
 C3 0.999992 0.178399 0.35457  -0.0335117054264
 C3 0.999959 0.678057 0.35490  -0.0335117054264
 C3 0.499991 0.178512 0.35522  -0.0335117054264
 C3 0.500007 0.678525 0.35520  -0.0335117054264
 C5 0.999997 0.228445 0.45590  -0.115613372093
 C5 1.8e-05 0.7282 0.45615  -0.115613372093
 C5 0.499997 0.228612 0.45652  -0.115613372093
 C5 0.499991 0.728469 0.45666  -0.115613372093
 C2 1.3e-05 0.192135 0.25339  -0.176232122093
 C2 4.2e-05 0.691661 0.25360  -0.176232122093
 C2 0.5 0.192202 0.25399  -0.176232122093
 C2 0.499986 0.692453 0.25418  -0.176232122093
 C4 0.999992 0.141312 0.15641  0.163196627907
 C4 0.999964 0.640759 0.15672  0.163196627907
 C4 0.499994 0.141363 0.15703  0.163196627907
 C4 0.500007 0.641759 0.15703  0.163196627907
 N1 0.101599 0.451978 0.06774  -0.497433372093
 N1 0.101481 0.952425 0.06735  -0.497433372093
 N1 0.601474 0.45275 0.06726  -0.497433372093
 N1 0.601568 0.95236 0.06772  -0.497433372093
 N1 0.101579 0.047605 0.93223  -0.497433372093
 N1 0.101493 0.547209 0.9327  -0.497433372093
 N1 0.601482 0.04754 0.93260  -0.497433372093
 N1 0.601608 0.547982 0.93223  -0.497433372093
 N1 0.398523 0.047543 0.9326  -0.497433372093
 N1 0.3984 0.547984 0.93224  -0.497433372093
 N1 0.898426 0.047607 0.93223  -0.497433372093
 N1 0.898515 0.547211 0.93272  -0.497433372093
 N1 0.398508 0.452753 0.06727  -0.497433372093
 N1 0.398417 0.952364 0.06773  -0.497433372093
 N1 0.898382 0.451979 0.0677  -0.497433372093
 N1 0.898504 0.952427 0.06736  -0.497433372093
 N2 3e-06 0.420481 0.84572  -0.314568372093
 N2 0.999976 0.920838 0.84539  -0.314568372093
 N2 0.499982 0.421408 0.8455  -0.314568372093
 N2 0.500001 0.920885 0.84602  -0.314568372093
 N2 8e-06 0.079085 0.15394  -0.314568372093
 N2 3.3e-05 0.578555 0.15440  -0.314568372093
 N2 0.499999 0.079133 0.15457  -0.314568372093
 N2 0.499988 0.57948 0.15426  -0.314568372093
