#======================================================================

# CRYSTAL DATA

#----------------------------------------------------------------------

data_VESTA_phase_1


_pd_phase_name                         MOF
_cell_length_a                         11.80400
_cell_length_b                         11.43800
_cell_length_c                         27.32700
_cell_angle_alpha                      89.97100
_cell_angle_beta                       90.05700
_cell_angle_gamma                      82.26600
_symmetry_space_group_name_H-M         "P 1"
_symmetry_Int_Tables_number            1

loop_
_symmetry_equiv_pos_as_xyz
   "x, y, z"

loop_
   _atom_site_label
   _atom_site_fract_x
   _atom_site_fract_y
   _atom_site_fract_z
 _atom_site_charge
 Zn1 0.750159 0.750076 0.15681  1.07812425926
 Zn1 0.749563 0.749738 0.66217  1.07812425926
 Zn1 0.250388 0.250278 0.33783  1.07812425926
 Zn1 0.249784 0.249941 0.84319  1.07812425926
 H1 0.139518 0.584932 0.84202  0.119203009259
 H1 0.996065 0.605093 0.77378  0.119203009259
 H1 0.965468 0.982315 0.79092  0.119203009259
 H1 0.105755 0.951011 0.86013  0.119203009259
 H1 0.438283 0.884242 0.94555  0.119203009259
 H1 0.574638 0.865066 0.01705  0.119203009259
 H1 0.450437 0.53932 0.05392  0.119203009259
 H1 0.318307 0.570122 0.98165  0.119203009259
 H1 0.359963 0.914866 0.84184  0.119203009259
 H1 0.502967 0.894785 0.77359  0.119203009259
 H1 0.533827 0.517561 0.79091  0.119203009259
 H1 0.393846 0.548769 0.86008  0.119203009259
 H1 0.062095 0.615535 0.94587  0.119203009259
 H1 0.926105 0.634784 0.01736  0.119203009259
 H1 0.050087 0.960875 0.0538  0.119203009259
 H1 0.181795 0.930006 0.98161  0.119203009259
 H1 0.595118 0.130851 0.34269  0.119203009259
 H1 0.616946 0.988551 0.27248  0.119203009259
 H1 0.982304 0.968547 0.28808  0.119203009259
 H1 0.949687 0.108523 0.35858  0.119203009259
 H1 0.875288 0.444571 0.44847  0.119203009259
 H1 0.85337 0.579399 0.52182  0.119203009259
 H1 0.53698 0.447102 0.55357  0.119203009259
 H1 0.570052 0.31694 0.47963  0.119203009259
 H1 0.90582 0.36883 0.34283  0.119203009259
 H1 0.883976 0.511053 0.27250  0.119203009259
 H1 0.518627 0.531806 0.2880  0.119203009259
 H1 0.551235 0.391841 0.35866  0.119203009259
 H1 0.624767 0.055032 0.44814  0.119203009259
 H1 0.64634 0.919472 0.52129  0.119203009259
 H1 0.962781 0.051156 0.55380  0.119203009259
 H1 0.929993 0.182139 0.48003  0.119203009259
 H1 0.404861 0.869173 0.65732  0.119203009259
 H1 0.383014 0.011479 0.7275  0.119203009259
 H1 0.01766 0.03145 0.71192  0.119203009259
 H1 0.050297 0.891469 0.64142  0.119203009259
 H1 0.124699 0.555444 0.5515  0.119203009259
 H1 0.146601 0.420621 0.47818  0.119203009259
 H1 0.463001 0.552897 0.44643  0.119203009259
 H1 0.429944 0.683055 0.52037  0.119203009259
 H1 0.094157 0.631195 0.65717  0.119203009259
 H1 0.11598 0.488983 0.72750  0.119203009259
 H1 0.481333 0.468202 0.71196  0.119203009259
 H1 0.448745 0.60816 0.64135  0.119203009259
 H1 0.375218 0.944992 0.55186  0.119203009259
 H1 0.353637 0.080555 0.47872  0.119203009259
 H1 0.037215 0.948836 0.446  0.119203009259
 H1 0.070009 0.817854 0.51997  0.119203009259
 H1 0.860426 0.415078 0.15798  0.119203009259
 H1 0.003881 0.394921 0.22622  0.119203009259
 H1 0.034492 0.017699 0.20908  0.119203009259
 H1 0.894202 0.049 0.13987  0.119203009259
 H1 0.56167 0.115761 0.05445  0.119203009259
 H1 0.425316 0.134939 0.98295  0.119203009259
 H1 0.549517 0.460686 0.94608  0.119203009259
 H1 0.681647 0.429882 0.01835  0.119203009259
 H1 0.639986 0.085147 0.1581  0.119203009259
 H1 0.496983 0.105233 0.22641  0.119203009259
 H1 0.466141 0.482457 0.20909  0.119203009259
 H1 0.606118 0.451243 0.1399  0.119203009259
 H1 0.937858 0.38447 0.0541  0.119203009259
 H1 0.073844 0.365224 0.98264  0.119203009259
 H1 0.949863 0.039134 0.9461  0.119203009259
 H1 0.818158 0.069999 0.01839  0.119203009259
 Pd1 0.249941 0.749938 0.90710  0.310064259259
 Pd1 0.750327 0.249805 0.4071  0.310064259259
 Pd1 0.249664 0.750204 0.59286  0.310064259259
 Pd1 0.750011 0.250069 0.09290  0.310064259259
 C1 0.079072 0.87696 0.83995  0.0749342592593
 C2 0.001465 0.893267 0.80159  -0.114868240741
 C3 0.972773 0.795354 0.77607  0.00421925925926
 C4 0.894794 0.813197 0.73170  0.636944259259
 C2 0.019826 0.682885 0.79188  -0.114868240741
 C1 0.097718 0.671248 0.83026  0.0749342592593
 C1 0.374549 0.634308 0.99161  0.0749342592593
 C2 0.448714 0.617481 0.03106  -0.114868240741
 C3 0.523102 0.699876 0.04086  0.00421925925926
 C2 0.518719 0.798474 0.01012  -0.114868240741
 C1 0.443508 0.809906 0.97079  0.0749342592593
 C4 0.609365 0.67832 0.08202  0.636944259259
 C1 0.420422 0.622859 0.83988  0.0749342592593
 C2 0.497873 0.606601 0.80153  -0.114868240741
 C3 0.526398 0.704524 0.77596  0.00421925925926
 C4 0.604331 0.686776 0.73163  0.636944259259
 C2 0.479377 0.816958 0.79172  -0.114868240741
 C1 0.401688 0.828552 0.83011  0.0749342592593
 C1 0.125705 0.865744 0.99164  0.0749342592593
 C2 0.051725 0.882628 0.03108  -0.114868240741
 C3 0.977386 0.800206 0.04097  0.00421925925926
 C2 0.981897 0.70147 0.01034  -0.114868240741
 C1 0.0569 0.689979 0.97102  0.0749342592593
 C4 0.891027 0.821748 0.08204  0.636944259259
 C1 0.878424 0.079396 0.33853  0.0749342592593
 C2 0.895485 0.001933 0.29932  -0.114868240741
 C3 0.801227 0.970612 0.27384  0.00421925925926
 C4 0.818899 0.89292 0.2286  0.636944259259
 C2 0.691756 0.014331 0.29060  -0.114868240741
 C1 0.679259 0.091669 0.32994  0.0749342592593
 C1 0.631643 0.374366 0.4910  0.0749342592593
 C2 0.61353 0.447631 0.53145  -0.114868240741
 C3 0.692632 0.523895 0.54316  0.00421925925926
 C2 0.78927 0.522237 0.51329  -0.114868240741
 C1 0.802213 0.447813 0.47300  0.0749342592593
 C4 0.670563 0.609941 0.58531  0.636944259259
 C1 0.622512 0.420728 0.33858  0.0749342592593
 C2 0.605436 0.498197 0.29933  -0.114868240741
 C3 0.699644 0.52934 0.27384  0.00421925925926
 C4 0.681707 0.607087 0.22865  0.636944259259
 C2 0.80916 0.485418 0.29063  -0.114868240741
 C1 0.821684 0.408088 0.33002  0.0749342592593
 C1 0.868383 0.124528 0.49124  0.0749342592593
 C2 0.886324 0.05079 0.53155  -0.114868240741
 C3 0.807177 0.97442 0.54299  0.00421925925926
 C2 0.710602 0.976543 0.51296  -0.114868240741
 C1 0.697829 0.051424 0.47277  0.0749342592593
 C4 0.828883 0.88798 0.58509  0.636944259259
 C1 0.121554 0.920598 0.66147  0.0749342592593
 C2 0.104482 0.998061 0.70068  -0.114868240741
 C3 0.198735 0.029408 0.72616  0.00421925925926
 C4 0.181056 0.107112 0.77133  0.636944259259
 C2 0.30821 0.985683 0.70940  -0.114868240741
 C1 0.320716 0.908345 0.67006  0.0749342592593
 C1 0.368346 0.625636 0.50894  0.0749342592593
 C2 0.386451 0.552372 0.46855  -0.114868240741
 C3 0.307342 0.476116 0.45684  0.00421925925926
 C2 0.210707 0.477778 0.48671  -0.114868240741
 C1 0.197771 0.5522 0.52700  0.0749342592593
 C4 0.3294 0.390071 0.41469  0.636944259259
 C1 0.377462 0.579284 0.66142  0.0749342592593
 C2 0.394528 0.501823 0.70068  -0.114868240741
 C3 0.300312 0.470678 0.72616  0.00421925925926
 C4 0.318238 0.392916 0.77135  0.636944259259
 C2 0.1908 0.514616 0.70938  -0.114868240741
 C1 0.178289 0.591937 0.66998  0.0749342592593
 C1 0.131614 0.875471 0.50876  0.0749342592593
 C2 0.11367 0.94921 0.46845  -0.114868240741
 C3 0.19281 0.02559 0.45701  0.00421925925926
 C2 0.28938 0.0 0.48705  -0.114868240741
 C1 0.302159 0.948593 0.52723  0.0749342592593
 C4 0.171099 0.112027 0.41491  0.636944259259
 C1 0.920882 0.123051 0.16005  0.0749342592593
 C2 0.99849 0.106746 0.19841  -0.114868240741
 C3 0.02718 0.204661 0.22393  0.00421925925926
 C4 0.105159 0.186817 0.26830  0.636944259259
 C2 0.980121 0.317128 0.20812  -0.114868240741
 C1 0.902229 0.328763 0.16974  0.0749342592593
 C1 0.625404 0.365697 0.00839  0.0749342592593
 C2 0.551239 0.382525 0.96894  -0.114868240741
 C3 0.476849 0.300132 0.95914  0.00421925925926
 C2 0.481233 0.201532 0.98988  -0.114868240741
 C1 0.556445 0.190098 0.02921  0.0749342592593
 C4 0.390584 0.321691 0.91798  0.636944259259
 C1 0.57954 0.377155 0.16013  0.0749342592593
 C2 0.50209 0.393415 0.19848  -0.114868240741
 C3 0.473558 0.295493 0.22404  0.00421925925926
 C4 0.39562 0.313242 0.26837  0.636944259259
 C2 0.520578 0.183058 0.20828  -0.114868240741
 C1 0.598265 0.171462 0.169  0.0749342592593
 C1 0.874247 0.134262 0.00836  0.0749342592593
 C2 0.948225 0.117381 0.96892  -0.114868240741
 C3 0.022563 0.199805 0.95903  0.00421925925926
 C2 0.0 0.298539 0.98966  -0.114868240741
 C1 0.943052 0.310027 0.02899  0.0749342592593
 C4 0.108919 0.178266 0.91796  0.636944259259
 N1 0.372314 0.729013 0.96173  -0.180303240741
 N1 0.127144 0.767399 0.8534  -0.180303240741
 N1 0.127927 0.770956 0.96184  -0.180303240741
 N1 0.372382 0.732394 0.85338  -0.180303240741
 N1 0.724601 0.374718 0.46210  -0.180303240741
 N1 0.771656 0.124207 0.35309  -0.180303240741
 N1 0.775559 0.124537 0.46210  -0.180303240741
 N1 0.729291 0.375701 0.35316  -0.180303240741
 N1 0.275388 0.62529 0.53790  -0.180303240741
 N1 0.228326 0.87581 0.64691  -0.180303240741
 N1 0.224437 0.87547 0.53790  -0.180303240741
 N1 0.270688 0.624304 0.64684  -0.180303240741
 N1 0.627639 0.270991 0.03827  -0.180303240741
 N1 0.872808 0.232612 0.1465  -0.180303240741
 N1 0.872025 0.229049 0.03817  -0.180303240741
 N1 0.627572 0.267619 0.14662  -0.180303240741
 O1 0.881485 0.717057 0.70845  -0.612430740741
 O2 0.851781 0.915053 0.72083  -0.592420740741
 O1 0.624239 0.77069 0.10624  -0.612430740741
 O2 0.657603 0.574641 0.08748  -0.592420740741
 O1 0.617211 0.782896 0.70824  -0.612430740741
 O2 0.647814 0.585021 0.72092  -0.592420740741
 O1 0.876094 0.729365 0.10627  -0.612430740741
 O2 0.842672 0.92539 0.08742  -0.592420740741
 O1 0.726195 0.885184 0.20393  -0.612430740741
 O2 0.916887 0.84517 0.2187  -0.592420740741
 O1 0.75925 0.621133 0.61079  -0.612430740741
 O2 0.570363 0.661278 0.58982  -0.592420740741
 O1 0.774267 0.614841 0.20389  -0.612430740741
 O2 0.583643 0.654872 0.21873  -0.592420740741
 O1 0.740115 0.8777 0.61061  -0.612430740741
 O2 0.928693 0.835574 0.58961  -0.592420740741
 O1 0.27375 0.114824 0.79608  -0.612430740741
 O2 0.08306 0.154826 0.78128  -0.592420740741
 O1 0.240709 0.378881 0.38921  -0.612430740741
 O2 0.429599 0.33873 0.41018  -0.592420740741
 O1 0.225682 0.385186 0.79611  -0.612430740741
 O2 0.416306 0.345151 0.78127  -0.592420740741
 O1 0.259863 0.122303 0.38939  -0.612430740741
 O2 0.07129 0.164435 0.41039  -0.592420740741
 O1 0.118467 0.282957 0.29155  -0.612430740741
 O2 0.148163 0.08496 0.27917  -0.592420740741
 O1 0.375707 0.229321 0.89376  -0.612430740741
 O2 0.342345 0.425369 0.91252  -0.592420740741
 O1 0.382743 0.217122 0.29176  -0.612430740741
 O2 0.352134 0.414997 0.27908  -0.592420740741
 O1 0.123848 0.270651 0.89373  -0.612430740741
 O2 0.157273 0.074625 0.91258  -0.592420740741
