#======================================================================

# CRYSTAL DATA

#----------------------------------------------------------------------

data_VESTA_phase_1


_pd_phase_name                         MOF
_cell_length_a                         15.25400
_cell_length_b                         13.76100
_cell_length_c                         22.27600
_cell_angle_alpha                      89.97000
_cell_angle_beta                       90.02400
_cell_angle_gamma                      90.15400
_symmetry_space_group_name_H-M         "P 1"
_symmetry_Int_Tables_number            1

loop_
_symmetry_equiv_pos_as_xyz
   "x, y, z"

loop_
   _atom_site_label
   _atom_site_fract_x
   _atom_site_fract_y
   _atom_site_fract_z
 _atom_site_charge
 Cd1 0.465905 0.831449 0.80083  0.962110322581
 Cd1 0.965916 0.831454 0.80083  0.962110322581
 Cd1 0.033959 0.669168 0.30136  0.962110322581
 Cd1 0.533954 0.669171 0.30136  0.962110322581
 Cd1 0.034087 0.168526 0.19918  0.962110322581
 Cd1 0.534094 0.168521 0.19918  0.962110322581
 Cd1 0.466011 0.330815 0.69864  0.962110322581
 Cd1 0.966041 0.330821 0.6986  0.962110322581
 Ni1 0.217048 0.581098 0.76745  -0.00634967741935
 Ni1 0.717064 0.581102 0.7674  -0.00634967741935
 Ni1 0.28309 0.919327 0.26956  -0.00634967741935
 Ni1 0.783094 0.919326 0.26956  -0.00634967741935
 Ni1 0.282939 0.418884 0.23255  -0.00634967741935
 Ni1 0.782941 0.418895 0.23254  -0.00634967741935
 Ni1 0.216904 0.080648 0.73043  -0.00634967741935
 Ni1 0.716916 0.080685 0.73047  -0.00634967741935
 H1 0.486838 0.844645 0.67086  0.307925322581
 H1 0.986848 0.844645 0.67086  0.307925322581
 H1 0.059097 0.771004 0.70190  0.307925322581
 H1 0.559108 0.771005 0.70190  0.307925322581
 H2 0.374806 0.724645 0.67260  0.0740233225806
 H2 0.874813 0.724651 0.67260  0.0740233225806
 H2 0.441977 0.648869 0.71647  0.0740233225806
 H2 0.94198 0.648869 0.71647  0.0740233225806
 H2 0.04438 0.622477 0.63352  0.0740233225806
 H2 0.54439 0.62248 0.63352  0.0740233225806
 H2 0.43662 0.584351 0.61793  0.0740233225806
 H2 0.93663 0.584357 0.61793  0.0740233225806
 H2 0.022573 0.770632 0.56836  0.0740233225806
 H2 0.522581 0.770635 0.56836  0.0740233225806
 H2 0.412518 0.735978 0.55554  0.0740233225806
 H2 0.91253 0.735981 0.55554  0.0740233225806
 H2 0.46368 0.578673 0.5107  0.0740233225806
 H2 0.963694 0.578674 0.51071  0.0740233225806
 H2 0.073658 0.612715 0.52328  0.0740233225806
 H2 0.573664 0.612719 0.52328  0.0740233225806
 H2 0.445937 0.719248 0.43875  0.0740233225806
 H2 0.945953 0.719247 0.43875  0.0740233225806
 H2 0.056772 0.750984 0.44976  0.0740233225806
 H2 0.55678 0.750981 0.44976  0.0740233225806
 H1 0.504951 0.938577 0.90342  0.307925322581
 H1 0.0 0.938581 0.90341  0.307925322581
 H1 0.402179 0.904578 0.91052  0.307925322581
 H1 0.902171 0.904569 0.91052  0.307925322581
 H1 0.010886 0.656604 0.17160  0.307925322581
 H1 0.510894 0.656607 0.17160  0.307925322581
 H1 0.440778 0.732404 0.2028  0.307925322581
 H1 0.940793 0.732399 0.20288  0.307925322581
 H2 0.125602 0.773737 0.17236  0.0740233225806
 H2 0.625611 0.77374 0.17236  0.0740233225806
 H2 0.060334 0.851691 0.21605  0.0740233225806
 H2 0.56034 0.851693 0.21605  0.0740233225806
 H2 0.45745 0.878914 0.13323  0.0740233225806
 H2 0.957457 0.878913 0.13323  0.0740233225806
 H2 0.065625 0.915186 0.11733  0.0740233225806
 H2 0.565642 0.915189 0.1173  0.0740233225806
 H2 0.477226 0.729828 0.06852  0.0740233225806
 H2 0.977231 0.729829 0.06852  0.0740233225806
 H2 0.087543 0.76299 0.05535  0.0740233225806
 H2 0.587559 0.762991 0.05535  0.0740233225806
 H2 0.037509 0.92088 0.01027  0.0740233225806
 H2 0.537531 0.920879 0.01027  0.0740233225806
 H2 0.427355 0.887764 0.02291  0.0740233225806
 H2 0.927352 0.887762 0.02291  0.0740233225806
 H2 0.054247 0.780031 0.93852  0.0740233225806
 H2 0.554266 0.780026 0.93852  0.0740233225806
 H2 0.443266 0.749072 0.94965  0.0740233225806
 H2 0.943268 0.749069 0.9496  0.0740233225806
 H1 0.996007 0.560976 0.40387  0.307925322581
 H1 0.496001 0.560977 0.40387  0.307925322581
 H1 0.098649 0.595698 0.4108  0.307925322581
 H1 0.598646 0.595687 0.4108  0.307925322581
 H1 0.013171 0.155344 0.32915  0.307925322581
 H1 0.513171 0.155345 0.3291  0.307925322581
 H1 0.440899 0.228981 0.29811  0.307925322581
 H1 0.94092 0.228978 0.29811  0.307925322581
 H2 0.125201 0.275344 0.32740  0.0740233225806
 H2 0.625202 0.275345 0.32740  0.0740233225806
 H2 0.058028 0.351116 0.28353  0.0740233225806
 H2 0.558029 0.351116 0.28353  0.0740233225806
 H2 0.455623 0.377515 0.36648  0.0740233225806
 H2 0.95564 0.377516 0.36648  0.0740233225806
 H2 0.063388 0.415638 0.38207  0.0740233225806
 H2 0.563394 0.41564 0.38207  0.0740233225806
 H2 0.477431 0.229359 0.43164  0.0740233225806
 H2 0.977447 0.229363 0.43164  0.0740233225806
 H2 0.08749 0.264015 0.44446  0.0740233225806
 H2 0.587494 0.264015 0.44446  0.0740233225806
 H2 0.036332 0.421319 0.48929  0.0740233225806
 H2 0.536335 0.42132 0.48929  0.0740233225806
 H2 0.426349 0.387278 0.47672  0.0740233225806
 H2 0.926364 0.387285 0.47672  0.0740233225806
 H2 0.054058 0.280739 0.56125  0.0740233225806
 H2 0.55407 0.280743 0.56125  0.0740233225806
 H2 0.443228 0.249007 0.55024  0.0740233225806
 H2 0.943235 0.249006 0.55024  0.0740233225806
 H1 0.995031 0.06141 0.09659  0.307925322581
 H1 0.495041 0.061408 0.09659  0.307925322581
 H1 0.097805 0.095403 0.08949  0.307925322581
 H1 0.597814 0.095408 0.08949  0.307925322581
 H1 0.489091 0.343391 0.8284  0.307925322581
 H1 0.989099 0.343389 0.82840  0.307925322581
 H1 0.059195 0.267591 0.79713  0.307925322581
 H1 0.559209 0.267605 0.79713  0.307925322581
 H2 0.374384 0.226244 0.82765  0.0740233225806
 H2 0.874382 0.226257 0.82765  0.0740233225806
 H2 0.439661 0.148297 0.78396  0.0740233225806
 H2 0.93965 0.1483 0.78396  0.0740233225806
 H2 0.042533 0.121082 0.8667  0.0740233225806
 H2 0.54256 0.121092 0.86678  0.0740233225806
 H2 0.434372 0.084803 0.88267  0.0740233225806
 H2 0.934364 0.084809 0.88268  0.0740233225806
 H2 0.022762 0.270164 0.93149  0.0740233225806
 H2 0.52277 0.270171 0.93149  0.0740233225806
 H2 0.412439 0.237 0.9446  0.0740233225806
 H2 0.912448 0.237012 0.94466  0.0740233225806
 H2 0.462474 0.079114 0.98973  0.0740233225806
 H2 0.962472 0.07912 0.98974  0.0740233225806
 H2 0.072628 0.112225 0.97710  0.0740233225806
 H2 0.572649 0.112239 0.97710  0.0740233225806
 H2 0.445727 0.219961 0.06149  0.0740233225806
 H2 0.945747 0.219968 0.06149  0.0740233225806
 H2 0.056726 0.250914 0.05036  0.0740233225806
 H2 0.556727 0.250921 0.05037  0.0740233225806
 H1 0.504 0.439007 0.59614  0.307925322581
 H1 0.0 0.439007 0.59614  0.307925322581
 H1 0.401356 0.404301 0.58917  0.307925322581
 H1 0.90136 0.404292 0.58918  0.307925322581
 C1 0.300962 0.663004 0.79896  0.117482822581
 C1 0.800963 0.663 0.7989  0.117482822581
 C1 0.303321 0.0 0.76070  0.117482822581
 C1 0.803345 0.0 0.7606  0.117482822581
 C1 0.132109 0.0 0.76428  0.117482822581
 C1 0.632078 0.0 0.7642  0.117482822581
 C1 0.131325 0.160432 0.69963  0.117482822581
 C1 0.631322 0.16041 0.69962  0.117482822581
 C2 0.442986 0.70114 0.67929  0.0564053225806
 C2 0.94299 0.70114 0.67929  0.0564053225806
 C3 0.977893 0.649625 0.62369  -0.159966344086
 C3 0.4779 0.649623 0.62369  -0.159966344086
 C3 0.478581 0.70713 0.5648  -0.159966344086
 C3 0.978591 0.707129 0.56487  -0.159966344086
 C3 0.00801 0.642139 0.5129  -0.159966344086
 C3 0.508015 0.642139 0.51294  -0.159966344086
 C2 0.010404 0.689676 0.45102  0.0564053225806
 C2 0.51041 0.689675 0.45102  0.0564053225806
 C1 0.198947 0.837552 0.30077  0.117482822581
 C1 0.698961 0.837546 0.30078  0.117482822581
 C1 0.196368 0.499122 0.26199  0.117482822581
 C1 0.696366 0.499114 0.26200  0.117482822581
 C1 0.367632 0.49823 0.26568  0.117482822581
 C1 0.867648 0.498202 0.2656  0.117482822581
 C1 0.368583 0.339154 0.2017  0.117482822581
 C1 0.868588 0.339145 0.20178  0.117482822581
 C2 0.057964 0.79897 0.17917  0.0564053225806
 C2 0.557971 0.798969 0.17917  0.0564053225806
 C3 0.523535 0.850628 0.12339  -0.159966344086
 C3 0.0 0.850624 0.12339  -0.159966344086
 C3 0.021843 0.792747 0.06473  -0.159966344086
 C3 0.521859 0.792747 0.06474  -0.159966344086
 C3 0.492792 0.857768 0.01263  -0.159966344086
 C3 0.99279 0.857771 0.01262  -0.159966344086
 C2 0.489982 0.81006 0.9507  0.0564053225806
 C2 0.989984 0.810057 0.95077  0.0564053225806
 C1 0.199037 0.336993 0.20104  0.117482822581
 C1 0.69904 0.33698 0.20105  0.117482822581
 C1 0.196658 0.999124 0.23930  0.117482822581
 C1 0.696674 0.999117 0.23929  0.117482822581
 C1 0.367897 0.997859 0.23576  0.117482822581
 C1 0.867905 0.997877 0.23578  0.117482822581
 C1 0.368657 0.839578 0.30040  0.117482822581
 C1 0.868692 0.839569 0.30036  0.117482822581
 C2 0.057022 0.298852 0.32071  0.0564053225806
 C2 0.557022 0.298848 0.32071  0.0564053225806
 C3 0.522112 0.350369 0.37631  -0.159966344086
 C3 0.0 0.350367 0.3763  -0.159966344086
 C3 0.021428 0.292866 0.43513  -0.159966344086
 C3 0.521431 0.292864 0.43513  -0.159966344086
 C3 0.491997 0.357856 0.48707  -0.159966344086
 C3 0.99201 0.35786 0.48707  -0.159966344086
 C2 0.489597 0.310314 0.54898  0.0564053225806
 C2 0.989608 0.310309 0.54898  0.0564053225806
 C1 0.301031 0.162424 0.69920  0.117482822581
 C1 0.801022 0.162444 0.69923  0.117482822581
 C1 0.303606 0.500888 0.73797  0.117482822581
 C1 0.803627 0.500867 0.73800  0.117482822581
 C1 0.132356 0.501776 0.73432  0.117482822581
 C1 0.632378 0.501761 0.73431  0.117482822581
 C1 0.131384 0.660831 0.79823  0.117482822581
 C1 0.631412 0.660818 0.79824  0.117482822581
 C2 0.442026 0.201022 0.8208  0.0564053225806
 C2 0.94202 0.201024 0.82084  0.0564053225806
 C3 0.976449 0.149369 0.87662  -0.159966344086
 C3 0.476471 0.14937 0.87662  -0.159966344086
 C3 0.478141 0.207249 0.93527  -0.159966344086
 C3 0.978145 0.20725 0.93527  -0.159966344086
 C3 0.007194 0.142227 0.98738  -0.159966344086
 C3 0.50721 0.142228 0.98738  -0.159966344086
 C2 0.010006 0.18993 0.0492  0.0564053225806
 C2 0.510013 0.189933 0.04924  0.0564053225806
 N1 0.354447 0.716737 0.81751  -0.441227177419
 N1 0.854435 0.716744 0.81751  -0.441227177419
 N1 0.358738 0.950345 0.7796  -0.441227177419
 N1 0.858775 0.950293 0.7795  -0.441227177419
 N1 0.07784 0.953258 0.78654  -0.441227177419
 N1 0.577889 0.95311 0.7864  -0.441227177419
 N1 0.077244 0.712498 0.81779  -0.441227177419
 N1 0.577273 0.712547 0.81774  -0.441227177419
 N2 0.493474 0.787048 0.69969  -0.632814677419
 N2 0.993484 0.787045 0.69969  -0.632814677419
 N2 0.464322 0.878992 0.90289  -0.632814677419
 N2 0.964317 0.878991 0.90289  -0.632814677419
 N1 0.14525 0.783655 0.31884  -0.441227177419
 N1 0.645261 0.783622 0.3188  -0.441227177419
 N1 0.140864 0.550207 0.2801  -0.441227177419
 N1 0.640869 0.550223 0.28017  -0.441227177419
 N1 0.421863 0.547976 0.28722  -0.441227177419
 N1 0.921872 0.547979 0.28721  -0.441227177419
 N1 0.42297 0.78768 0.3195  -0.441227177419
 N1 0.922986 0.787674 0.31954  -0.441227177419
 N2 0.005997 0.714579 0.20027  -0.632814677419
 N2 0.506003 0.71458 0.20028  -0.632814677419
 N2 0.036323 0.620812 0.40325  -0.632814677419
 N2 0.536322 0.62081 0.40325  -0.632814677419
 N1 0.145571 0.283222 0.18250  -0.441227177419
 N1 0.645561 0.283239 0.18250  -0.441227177419
 N1 0.141271 0.049634 0.22028  -0.441227177419
 N1 0.641245 0.04963 0.22033  -0.441227177419
 N1 0.42218 0.046749 0.21352  -0.441227177419
 N1 0.922144 0.046803 0.21353  -0.441227177419
 N1 0.422742 0.287424 0.18229  -0.441227177419
 N1 0.922734 0.287423 0.18228  -0.441227177419
 N2 0.006533 0.212939 0.30032  -0.632814677419
 N2 0.506533 0.212936 0.30032  -0.632814677419
 N2 0.035663 0.120993 0.09712  -0.632814677419
 N2 0.53567 0.120994 0.09712  -0.632814677419
 N1 0.354767 0.216262 0.68112  -0.441227177419
 N1 0.854758 0.216342 0.68122  -0.441227177419
 N1 0.359097 0.449784 0.71979  -0.441227177419
 N1 0.859122 0.449774 0.71981  -0.441227177419
 N1 0.078122 0.452026 0.71279  -0.441227177419
 N1 0.578117 0.452009 0.71280  -0.441227177419
 N1 0.077024 0.212333 0.68046  -0.441227177419
 N1 0.577032 0.212386 0.68052  -0.441227177419
 N2 0.493982 0.285418 0.79973  -0.632814677419
 N2 0.993991 0.285409 0.79973  -0.632814677419
 N2 0.463677 0.379175 0.59675  -0.632814677419
 N2 0.963685 0.379172 0.59675  -0.632814677419
