#======================================================================

# CRYSTAL DATA

#----------------------------------------------------------------------

data_VESTA_phase_1


_pd_phase_name                         MOF
_cell_length_a                         12.46500
_cell_length_b                         15.96800
_cell_length_c                         15.97200
_cell_angle_alpha                      90.00200
_cell_angle_beta                       89.97700
_cell_angle_gamma                      90.00700
_symmetry_space_group_name_H-M         "P 1"
_symmetry_Int_Tables_number            1

loop_
_symmetry_equiv_pos_as_xyz
   "x, y, z"

loop_
   _atom_site_label
   _atom_site_fract_x
   _atom_site_fract_y
   _atom_site_fract_z
 _atom_site_charge
 Cu1 0.624436 0.52168 0.00248  0.354958913043
 Cu1 0.124426 0.478398 0.99748  0.354958913043
 Cu1 0.874483 0.497481 0.02164  0.354958913043
 Cu1 0.374396 0.502478 0.97836  0.354958913043
 Cu1 0.625604 0.978407 0.50248  0.354958913043
 Cu1 0.125575 0.021662 0.4974  0.354958913043
 Cu1 0.375619 0.00246 0.52164  0.354958913043
 Cu1 0.875586 0.997515 0.4783  0.354958913043
 H1 0.245202 0.595591 0.82333  0.0888411352657
 H1 0.240415 0.624187 0.92950  0.0888411352657
 H1 0.761328 0.70967 0.71735  0.0888411352657
 H1 0.753478 0.642028 0.94502  0.0888411352657
 H1 0.76095 0.600932 0.84468  0.0888411352657
 H1 0.130872 0.720426 0.83876  0.0888411352657
 H1 0.233362 0.775146 0.89238  0.0888411352657
 H1 0.866631 0.730097 0.84721  0.0888411352657
 H1 0.759974 0.788145 0.89204  0.0888411352657
 H1 0.745241 0.404399 0.17672  0.0888411352657
 H1 0.740543 0.375789 0.07055  0.0888411352657
 H1 0.261309 0.290382 0.28257  0.0888411352657
 H1 0.253573 0.358031 0.05490  0.0888411352657
 H1 0.260978 0.399122 0.15524  0.0888411352657
 H1 0.63093 0.279539 0.16134  0.0888411352657
 H1 0.733433 0.224844 0.10767  0.0888411352657
 H1 0.366656 0.269972 0.15266  0.0888411352657
 H1 0.260001 0.211904 0.1078  0.0888411352657
 H1 0.495255 0.67675 0.09560  0.0888411352657
 H1 0.490495 0.570552 0.12418  0.0888411352657
 H1 0.011337 0.782608 0.20964  0.0888411352657
 H1 0.003496 0.554876 0.14200  0.0888411352657
 H1 0.010999 0.655237 0.10092  0.0888411352657
 H1 0.380897 0.661322 0.22043  0.0888411352657
 H1 0.483357 0.607648 0.27510  0.0888411352657
 H1 0.116609 0.652685 0.23003  0.0888411352657
 H1 0.00991 0.607884 0.28808  0.0888411352657
 H1 0.995158 0.323368 0.90436  0.0888411352657
 H1 0.990478 0.429557 0.87576  0.0888411352657
 H1 0.511272 0.217366 0.79033  0.0888411352657
 H1 0.503496 0.445092 0.8579  0.0888411352657
 H1 0.51093 0.344724 0.89905  0.0888411352657
 H1 0.880908 0.33877 0.77955  0.0888411352657
 H1 0.983445 0.392415 0.72485  0.0888411352657
 H1 0.616633 0.347283 0.76990  0.0888411352657
 H1 0.509999 0.392106 0.71189  0.0888411352657
 H1 0.004815 0.904417 0.32329  0.0888411352657
 H1 0.009503 0.875812 0.42946  0.0888411352657
 H1 0.488751 0.790411 0.21739  0.0888411352657
 H1 0.496467 0.858052 0.44506  0.0888411352657
 H1 0.489069 0.899138 0.34472  0.0888411352657
 H1 0.119104 0.779565 0.33868  0.0888411352657
 H1 0.016577 0.72486 0.39233  0.0888411352657
 H1 0.383375 0.769977 0.34729  0.0888411352657
 H1 0.49001 0.711927 0.39208  0.0888411352657
 H1 0.504786 0.095569 0.67669  0.0888411352657
 H1 0.509597 0.124148 0.57052  0.0888411352657
 H1 0.988695 0.209676 0.78259  0.0888411352657
 H1 0.996575 0.142009 0.55492  0.0888411352657
 H1 0.989085 0.100918 0.65526  0.0888411352657
 H1 0.619152 0.220402 0.66126  0.0888411352657
 H1 0.516691 0.275108 0.60762  0.0888411352657
 H1 0.88343 0.230074 0.65273  0.0888411352657
 H1 0.990106 0.288134 0.60791  0.0888411352657
 H1 0.754875 0.823329 0.59557  0.0888411352657
 H1 0.759613 0.929527 0.62415  0.0888411352657
 H1 0.238727 0.71738 0.70969  0.0888411352657
 H1 0.246567 0.94511 0.64205  0.0888411352657
 H1 0.239093 0.844745 0.6009  0.0888411352657
 H1 0.869162 0.838769 0.72036  0.0888411352657
 H1 0.766655 0.892428 0.77507  0.0888411352657
 H1 0.133402 0.847288 0.73011  0.0888411352657
 H1 0.240052 0.892118 0.7881  0.0888411352657
 H1 0.254792 0.176691 0.40435  0.0888411352657
 H1 0.259506 0.070502 0.37574  0.0888411352657
 H1 0.738715 0.282607 0.29038  0.0888411352657
 H1 0.746496 0.05489 0.35803  0.0888411352657
 H1 0.739026 0.155263 0.39910  0.0888411352657
 H1 0.369127 0.161302 0.27950  0.0888411352657
 H1 0.26663 0.107638 0.22483  0.0888411352657
 H1 0.633412 0.152669 0.26999  0.0888411352657
 H1 0.740084 0.10786 0.21194  0.0888411352657
 C1 0.609517 0.654467 0.87386  0.230383913043
 C2 0.557131 0.709284 0.8163  -0.0340827536232
 C2 0.615672 0.761634 0.76198  -0.0340827536232
 C2 0.442351 0.708521 0.8151  -0.0340827536232
 C1 0.389402 0.650226 0.86881  0.230383913043
 C3 0.269348 0.645002 0.86793  -0.163808586957
 C4 0.736774 0.759939 0.76130  -0.0130310869565
 C3 0.729491 0.654945 0.88013  -0.163808586957
 C3 0.21828 0.728419 0.84289  -0.163808586957
 C3 0.778861 0.73663 0.84840  -0.163808586957
 C1 0.10955 0.345567 0.12609  0.230383913043
 C2 0.057146 0.290729 0.18365  -0.0340827536232
 C2 0.115656 0.238429 0.23800  -0.0340827536232
 C2 0.9424 0.291514 0.18488  -0.0340827536232
 C1 0.889469 0.349773 0.13122  0.230383913043
 C3 0.769417 0.354983 0.13212  -0.163808586957
 C4 0.23676 0.240114 0.23862  -0.0130310869565
 C3 0.229531 0.34511 0.119  -0.163808586957
 C3 0.718339 0.271558 0.15718  -0.163808586957
 C3 0.278885 0.263432 0.15150  -0.163808586957
 C1 0.859559 0.626129 0.15440  0.230383913043
 C2 0.807157 0.683643 0.20929  -0.0340827536232
 C2 0.865676 0.738021 0.26157  -0.0340827536232
 C2 0.692379 0.684914 0.20845  -0.0340827536232
 C1 0.639447 0.631206 0.15022  0.230383913043
 C3 0.519399 0.632137 0.14499  -0.163808586957
 C4 0.98678 0.738649 0.25989  -0.0130310869565
 C3 0.979532 0.619789 0.15492  -0.163808586957
 C3 0.468302 0.657171 0.22840  -0.163808586957
 C3 0.028836 0.651513 0.2365  -0.163808586957
 C1 0.359511 0.373902 0.84552  0.230383913043
 C2 0.30712 0.316309 0.7907  -0.0340827536232
 C2 0.365653 0.261999 0.73837  -0.0340827536232
 C2 0.192337 0.315187 0.79145  -0.0340827536232
 C1 0.139389 0.368828 0.84976  0.230383913043
 C3 0.019332 0.367964 0.85496  -0.163808586957
 C4 0.486755 0.261327 0.74008  -0.0130310869565
 C3 0.479489 0.380181 0.84506  -0.163808586957
 C3 0.968321 0.34291 0.77156  -0.163808586957
 C3 0.528864 0.348461 0.76338  -0.163808586957
 C1 0.640481 0.845598 0.3738  0.230383913043
 C2 0.692891 0.790771 0.31630  -0.0340827536232
 C2 0.634373 0.738406 0.26201  -0.0340827536232
 C2 0.807674 0.791504 0.31514  -0.0340827536232
 C1 0.860603 0.849793 0.36879  0.230383913043
 C3 0.980657 0.855003 0.36789  -0.163808586957
 C4 0.513271 0.740137 0.26133  -0.0130310869565
 C3 0.520501 0.845129 0.38017  -0.163808586957
 C3 0.031693 0.771582 0.34284  -0.163808586957
 C3 0.471145 0.763444 0.34845  -0.163808586957
 C1 0.140506 0.154461 0.62608  0.230383913043
 C2 0.192885 0.209292 0.68364  -0.0340827536232
 C2 0.134351 0.261614 0.73799  -0.0340827536232
 C2 0.307664 0.208485 0.68485  -0.0340827536232
 C1 0.360613 0.150204 0.63118  0.230383913043
 C3 0.480664 0.144974 0.63208  -0.163808586957
 C4 0.013247 0.259938 0.73864  -0.0130310869565
 C3 0.020531 0.154929 0.61981  -0.163808586957
 C3 0.531747 0.228395 0.65712  -0.163808586957
 C3 0.971201 0.236613 0.65153  -0.163808586957
 C1 0.390527 0.873909 0.6544  0.230383913043
 C2 0.44291 0.816353 0.70928  -0.0340827536232
 C2 0.38437 0.762015 0.76162  -0.0340827536232
 C2 0.557691 0.815165 0.7084  -0.0340827536232
 C1 0.61064 0.868823 0.65019  0.230383913043
 C3 0.730696 0.867945 0.64497  -0.163808586957
 C4 0.263268 0.761349 0.7599  -0.0130310869565
 C3 0.27055 0.880194 0.65495  -0.163808586957
 C3 0.781751 0.842909 0.72836  -0.163808586957
 C3 0.221171 0.848476 0.7366  -0.163808586957
 C1 0.890494 0.126076 0.34555  0.230383913043
 C2 0.9429 0.183704 0.29078  -0.0340827536232
 C2 0.884388 0.237981 0.23840  -0.0340827536232
 C2 0.05765 0.184828 0.29146  -0.0340827536232
 C1 0.110574 0.131228 0.34978  0.230383913043
 C3 0.230627 0.132093 0.35494  -0.163808586957
 C4 0.763285 0.238642 0.24013  -0.0130310869565
 C3 0.770513 0.119799 0.34511  -0.163808586957
 C3 0.28172 0.15715 0.2715  -0.163808586957
 C3 0.721185 0.151504 0.2634  -0.163808586957
 N1 0.554972 0.601816 0.92259  -0.180426086957
 N1 0.443422 0.598569 0.91884  -0.180426086957
 N1 0.055029 0.398278 0.07744  -0.180426086957
 N1 0.943498 0.401388 0.08111  -0.180426086957
 N1 0.805032 0.577435 0.10173  -0.180426086957
 N1 0.693477 0.581155 0.09856  -0.180426086957
 N1 0.30497 0.422611 0.89819  -0.180426086957
 N1 0.193419 0.418863 0.90141  -0.180426086957
 N1 0.695011 0.898247 0.42258  -0.180426086957
 N1 0.806564 0.901457 0.41883  -0.180426086957
 N1 0.19504 0.101731 0.57743  -0.180426086957
 N1 0.306602 0.098602 0.58108  -0.180426086957
 N1 0.445066 0.922557 0.60173  -0.180426086957
 N1 0.556632 0.918922 0.598  -0.180426086957
 N1 0.945016 0.077406 0.39823  -0.180426086957
 N1 0.056531 0.081167 0.40142  -0.180426086957
 Cl1 0.749373 0.441992 0.92371  -0.483931086957
 Cl1 0.249288 0.558049 0.07632  -0.483931086957
 Cl1 0.999388 0.57636 0.9419  -0.483931086957
 Cl1 0.49929 0.423707 0.05798  -0.483931086957
 Cl1 0.500743 0.058038 0.42368  -0.483931086957
 Cl1 0.000639 0.942013 0.57628  -0.483931086957
 Cl1 0.250703 0.923708 0.44201  -0.483931086957
 Cl1 0.750698 0.076349 0.55802  -0.483931086957
