#======================================================================

# CRYSTAL DATA

#----------------------------------------------------------------------

data_VESTA_phase_1


_pd_phase_name                         MOF
_cell_length_a                         13.21500
_cell_length_b                         17.40800
_cell_length_c                         17.40900
_cell_angle_alpha                      81.73400
_cell_angle_beta                       67.67800
_cell_angle_gamma                      67.69000
_symmetry_space_group_name_H-M         "P 1"
_symmetry_Int_Tables_number            1

loop_
_symmetry_equiv_pos_as_xyz
   "x, y, z"

loop_
   _atom_site_label
   _atom_site_fract_x
   _atom_site_fract_y
   _atom_site_fract_z
 _atom_site_charge
 Cu1 0.36256 0.249842 0.77479  0.236773423913
 Cu1 0.8873 0.250079 0.72528  0.236773423913
 Cu1 0.637362 0.225272 0.75014  0.236773423913
 Cu1 0.112738 0.274775 0.74989  0.236773423913
 Cu1 0.637426 0.750171 0.22520  0.236773423913
 Cu1 0.112659 0.749904 0.27476  0.236773423913
 Cu1 0.36259 0.774754 0.24988  0.236773423913
 Cu1 0.887223 0.725197 0.25016  0.236773423913
 H1 0.204496 0.186257 0.95502  0.0888043961353
 H1 0.251105 0.153482 0.85211  0.0888043961353
 H1 0.282661 0.007431 0.8968  0.0888043961353
 H1 0.139078 0.071034 0.95479  0.0888043961353
 H1 0.845914 0.313649 0.54512  0.0888043961353
 H1 0.756822 0.346388 0.64805  0.0888043961353
 H1 0.686839 0.492432 0.60336  0.0888043961353
 H1 0.664939 0.428768 0.54542  0.0888043961353
 H1 0.659439 0.045204 0.68648  0.0888043961353
 H1 0.603205 0.148105 0.6537  0.0888043961353
 H1 0.679344 0.103306 0.50770  0.0888043961353
 H1 0.593665 0.045446 0.5713  0.0888043961353
 H1 0.890759 0.45507 0.81374  0.0888043961353
 H1 0.904571 0.352162 0.84639  0.0888043961353
 H1 0.790032 0.396891 0.99251  0.0888043961353
 H1 0.710075 0.45485 0.92896  0.0888043961353
 H1 0.154162 0.455039 0.68625  0.0888043961353
 H1 0.243292 0.352115 0.6535  0.0888043961353
 H1 0.31315 0.396801 0.50744  0.0888043961353
 H1 0.335092 0.454775 0.57104  0.0888043961353
 H1 0.795376 0.045127 0.81363  0.0888043961353
 H1 0.748697 0.148035 0.84644  0.0888043961353
 H1 0.717282 0.103285 0.99246  0.0888043961353
 H1 0.860858 0.045383 0.92879  0.0888043961353
 H1 0.109231 0.18628 0.54497  0.0888043961353
 H1 0.095395 0.153596 0.64787  0.0888043961353
 H1 0.209891 0.007498 0.60312  0.0888043961353
 H1 0.289895 0.071039 0.54517  0.0888043961353
 H1 0.340432 0.313552 0.95487  0.0888043961353
 H1 0.396764 0.346241 0.85195  0.0888043961353
 H1 0.320715 0.492293 0.89669  0.0888043961353
 H1 0.406294 0.428655 0.95459  0.0888043961353
 H1 0.795506 0.813754 0.0450  0.0888043961353
 H1 0.748841 0.846565 0.14792  0.0888043961353
 H1 0.717286 0.992607 0.10315  0.0888043961353
 H1 0.860879 0.929004 0.04523  0.0888043961353
 H1 0.154072 0.686337 0.45491  0.0888043961353
 H1 0.243149 0.65357 0.35198  0.0888043961353
 H1 0.313117 0.507536 0.39669  0.0888043961353
 H1 0.335023 0.571205 0.45462  0.0888043961353
 H1 0.340454 0.954843 0.31355  0.0888043961353
 H1 0.396725 0.851935 0.34628  0.0888043961353
 H1 0.320612 0.89671 0.49232  0.0888043961353
 H1 0.406262 0.954589 0.4286  0.0888043961353
 H1 0.109213 0.54489 0.18627  0.0888043961353
 H1 0.095422 0.647804 0.15365  0.0888043961353
 H1 0.209973 0.603101 0.00752  0.0888043961353
 H1 0.289918 0.545117 0.07107  0.0888043961353
 H1 0.845777 0.544948 0.31380  0.0888043961353
 H1 0.756659 0.647872 0.34653  0.0888043961353
 H1 0.686802 0.60318 0.49261  0.0888043961353
 H1 0.664859 0.54521 0.42901  0.0888043961353
 H1 0.204605 0.954876 0.18636  0.0888043961353
 H1 0.251293 0.85197 0.15355  0.0888043961353
 H1 0.282695 0.896727 0.00753  0.0888043961353
 H1 0.139125 0.954629 0.07120  0.0888043961353
 H1 0.890699 0.813725 0.45511  0.0888043961353
 H1 0.904538 0.84638 0.35220  0.0888043961353
 H1 0.790051 0.992493 0.39693  0.0888043961353
 H1 0.710039 0.928961 0.45489  0.0888043961353
 H1 0.659613 0.686448 0.04508  0.0888043961353
 H1 0.603222 0.6538 0.14801  0.0888043961353
 H1 0.679268 0.507732 0.10331  0.0888043961353
 H1 0.593699 0.571357 0.045  0.0888043961353
 H1 0.198502 0.07279 0.0729  0.0888043961353
 H1 0.844197 0.427101 0.42726  0.0888043961353
 H1 0.771233 0.927272 0.57300  0.0888043961353
 H1 0.771338 0.572942 0.92724  0.0888043961353
 H1 0.15576 0.572884 0.57279  0.0888043961353
 H1 0.801498 0.927213 0.92710  0.0888043961353
 H1 0.228672 0.072754 0.42706  0.0888043961353
 H1 0.228663 0.427039 0.07274  0.0888043961353
 C1 0.38722 0.119547 0.90190  0.228614673913
 C2 0.440948 0.058963 0.95285  -0.0328299094203
 C3 0.26366 0.13375 0.91180  -0.163497201087
 C3 0.231727 0.056558 0.94450  -0.163497201087
 C1 0.908755 0.380401 0.59818  0.228614673913
 C2 0.952791 0.441008 0.5472  -0.0328299094203
 C3 0.809295 0.366149 0.58835  -0.163497201087
 C3 0.732776 0.443313 0.55569  -0.163497201087
 C1 0.78913 0.098188 0.61970  0.228614673913
 C2 0.893792 0.04718 0.55907  -0.0328299094203
 C3 0.675405 0.088371 0.63397  -0.163497201087
 C3 0.676081 0.055671 0.55680  -0.163497201087
 C1 0.006767 0.401854 0.8804  0.228614673913
 C2 0.99993 0.452862 0.94099  -0.0328299094203
 C3 0.897405 0.41183 0.86619  -0.163497201087
 C3 0.788253 0.44455 0.9434  -0.163497201087
 C1 0.091318 0.401887 0.6195  0.228614673913
 C2 0.047219 0.452837 0.55899  -0.0328299094203
 C3 0.190774 0.411787 0.63377  -0.163497201087
 C3 0.267232 0.444469 0.55656  -0.163497201087
 C1 0.612664 0.098154 0.88042  0.228614673913
 C2 0.558999 0.047163 0.94101  -0.0328299094203
 C3 0.736215 0.088318 0.86616  -0.163497201087
 C3 0.768208 0.055632 0.94332  -0.163497201087
 C1 0.993191 0.119614 0.59813  0.228614673913
 C2 0.0 0.059004 0.54717  -0.0328299094203
 C3 0.102571 0.133814 0.58819  -0.163497201087
 C3 0.211707 0.056585 0.55546  -0.163497201087
 C1 0.210836 0.380364 0.90179  0.228614673913
 C2 0.106161 0.440952 0.95284  -0.0328299094203
 C3 0.324535 0.366038 0.91167  -0.163497201087
 C3 0.323896 0.443209 0.9443  -0.163497201087
 C1 0.612759 0.88047 0.09810  0.228614673913
 C2 0.559046 0.941032 0.04713  -0.0328299094203
 C3 0.736316 0.866271 0.08822  -0.163497201087
 C3 0.768236 0.943468 0.05550  -0.163497201087
 C1 0.091218 0.619567 0.40186  0.228614673913
 C2 0.047157 0.55898 0.45285  -0.0328299094203
 C3 0.190668 0.633828 0.41169  -0.163497201087
 C3 0.26718 0.556663 0.44435  -0.163497201087
 C1 0.210802 0.901815 0.38035  0.228614673913
 C2 0.106137 0.952829 0.44098  -0.0328299094203
 C3 0.324517 0.911663 0.36605  -0.163497201087
 C3 0.323853 0.944353 0.44322  -0.163497201087
 C1 0.993216 0.598115 0.11959  0.228614673913
 C2 0.0 0.547143 0.05900  -0.0328299094203
 C3 0.102584 0.588147 0.13382  -0.163497201087
 C3 0.211745 0.55543 0.05660  -0.163497201087
 C1 0.908625 0.598101 0.38049  0.228614673913
 C2 0.952737 0.547143 0.44106  -0.0328299094203
 C3 0.80918 0.588195 0.36628  -0.163497201087
 C3 0.732722 0.555516 0.44349  -0.163497201087
 C1 0.387326 0.901846 0.11957  0.228614673913
 C2 0.440989 0.95284 0.05898  -0.0328299094203
 C3 0.263771 0.911689 0.13383  -0.163497201087
 C3 0.231777 0.944376 0.05667  -0.163497201087
 C1 0.006739 0.880397 0.40191  0.228614673913
 C2 0.999894 0.941 0.45288  -0.0328299094203
 C3 0.897363 0.866178 0.41187  -0.163497201087
 C3 0.788228 0.943414 0.44459  -0.163497201087
 C1 0.789168 0.61967 0.09817  0.228614673913
 C2 0.893833 0.559051 0.0471  -0.0328299094203
 C3 0.675466 0.633977 0.08831  -0.163497201087
 C3 0.676096 0.556803 0.05564  -0.163497201087
 C2 0.380839 0.012203 0.01225  -0.0328299094203
 C4 0.256452 0.024351 0.02446  -0.021271576087
 C2 0.905249 0.487754 0.48784  -0.0328299094203
 C4 0.805221 0.475547 0.47570  -0.021271576087
 C2 0.893004 0.987804 0.51232  -0.0328299094203
 C4 0.780748 0.975673 0.5245  -0.021271576087
 C2 0.893042 0.512296 0.98779  -0.0328299094203
 C4 0.780794 0.524522 0.97566  -0.021271576087
 C2 0.0947 0.512232 0.51221  -0.0328299094203
 C4 0.194733 0.524436 0.52435  -0.021271576087
 C2 0.619155 0.987795 0.98774  -0.0328299094203
 C4 0.743534 0.975656 0.97554  -0.021271576087
 C2 0.106925 0.012205 0.48773  -0.0328299094203
 C4 0.219177 0.024341 0.47549  -0.021271576087
 C2 0.106953 0.487706 0.01220  -0.0328299094203
 C4 0.219202 0.475472 0.02433  -0.021271576087
 I1 0.49995 0.329414 0.67066  -0.404021576087
 I1 0.999986 0.17064 0.82942  -0.404021576087
 I1 0.670467 0.329551 0.82952  -0.404021576087
 I1 0.329515 0.170507 0.6704  -0.404021576087
 I1 0.500017 0.670592 0.32934  -0.404021576087
 I1 0.999974 0.829361 0.17063  -0.404021576087
 I1 0.329473 0.670479 0.17052  -0.404021576087
 I1 0.67046 0.829465 0.32955  -0.404021576087
 N1 0.442879 0.164312 0.84561  -0.157735326087
 N1 0.952901 0.33568 0.65446  -0.157735326087
 N1 0.788539 0.154521 0.66441  -0.157735326087
 N1 0.107228 0.345585 0.83560  -0.157735326087
 N1 0.047204 0.345586 0.66432  -0.157735326087
 N1 0.556957 0.15444 0.835  -0.157735326087
 N1 0.892755 0.164372 0.6544  -0.157735326087
 N1 0.211403 0.335563 0.84555  -0.157735326087
 N1 0.557106 0.835693 0.1543  -0.157735326087
 N1 0.047028 0.664324 0.3456  -0.157735326087
 N1 0.211384 0.84552 0.3356  -0.157735326087
 N1 0.892777 0.654454 0.16436  -0.157735326087
 N1 0.952784 0.654369 0.33570  -0.157735326087
 N1 0.44301 0.845584 0.16432  -0.157735326087
 N1 0.107186 0.835607 0.34559  -0.157735326087
 N1 0.788577 0.664391 0.15449  -0.157735326087
