#======================================================================

# CRYSTAL DATA

#----------------------------------------------------------------------

data_VESTA_phase_1


_pd_phase_name                         MOF
_cell_length_a                         18.65500
_cell_length_b                         17.34300
_cell_length_c                         20.28200
_cell_angle_alpha                      89.99900
_cell_angle_beta                       90.00900
_cell_angle_gamma                      98.64300
_symmetry_space_group_name_H-M         "P 1"
_symmetry_Int_Tables_number            1

loop_
_symmetry_equiv_pos_as_xyz
   "x, y, z"

loop_
   _atom_site_label
   _atom_site_fract_x
   _atom_site_fract_y
   _atom_site_fract_z
 _atom_site_charge
 Zn1 0.031478 0.273375 0.8163  0.859034230769
 Zn1 0.531485 0.273377 0.8163  0.859034230769
 Zn1 0.218556 0.226604 0.31636  0.859034230769
 Zn1 0.718562 0.226606 0.31636  0.859034230769
 Zn1 0.46853 0.726637 0.18362  0.859034230769
 Zn1 0.968536 0.726639 0.18362  0.859034230769
 Zn1 0.281454 0.773408 0.68362  0.859034230769
 Zn1 0.781459 0.773409 0.68362  0.859034230769
 H1 0.400192 0.052439 0.760  0.0821716381766
 H1 0.900192 0.052439 0.76079  0.0821716381766
 H1 0.190617 0.931055 0.81259  0.0821716381766
 H1 0.690616 0.931056 0.81259  0.0821716381766
 H1 0.271189 0.152681 0.90450  0.0821716381766
 H1 0.771189 0.152681 0.90450  0.0821716381766
 H1 0.083126 0.968739 0.85145  0.0821716381766
 H1 0.583127 0.968738 0.85145  0.0821716381766
 H1 0.13198 0.922764 0.91218  0.0821716381766
 H1 0.631984 0.922762 0.91218  0.0821716381766
 H1 0.473341 0.017507 0.88131  0.0821716381766
 H1 0.973347 0.017506 0.88131  0.0821716381766
 H1 0.117063 0.960299 0.03447  0.0821716381766
 H1 0.617071 0.960294 0.03447  0.0821716381766
 H1 0.052501 0.119374 0.75652  0.0821716381766
 H1 0.552505 0.119376 0.75652  0.0821716381766
 H1 0.129576 0.067388 0.67117  0.0821716381766
 H1 0.629579 0.067391 0.67117  0.0821716381766
 H1 0.255792 0.29603 0.66000  0.0821716381766
 H1 0.75579 0.296035 0.66000  0.0821716381766
 H1 0.17394 0.339241 0.74766  0.0821716381766
 H1 0.673938 0.339244 0.74766  0.0821716381766
 H1 0.212233 0.161958 0.55497  0.0821716381766
 H1 0.712234 0.161965 0.55497  0.0821716381766
 H1 0.242205 0.08903 0.60466  0.0821716381766
 H1 0.742205 0.089036 0.60466  0.0821716381766
 H1 0.352719 0.131571 0.51830  0.0821716381766
 H1 0.85272 0.131575 0.51830  0.0821716381766
 H1 0.310906 0.212944 0.49330  0.0821716381766
 H1 0.81091 0.212952 0.493  0.0821716381766
 H1 0.412805 0.305461 0.53567  0.0821716381766
 H1 0.912809 0.305466 0.53567  0.0821716381766
 H1 0.442754 0.239142 0.4786  0.0821716381766
 H1 0.942758 0.239146 0.47861  0.0821716381766
 H1 0.47175 0.200696 0.68040  0.0821716381766
 H1 0.971751 0.2007 0.6804  0.0821716381766
 H1 0.431356 0.283273 0.65766  0.0821716381766
 H1 0.931359 0.283278 0.65765  0.0821716381766
 H1 0.338605 0.178359 0.69567  0.0821716381766
 H1 0.838607 0.178367 0.6956  0.0821716381766
 H1 0.367969 0.110144 0.63997  0.0821716381766
 H1 0.867969 0.110149 0.63997  0.0821716381766
 H1 0.03743 0.329511 0.57792  0.0821716381766
 H1 0.537432 0.32951 0.57792  0.0821716381766
 H1 0.069717 0.25321 0.62080  0.0821716381766
 H1 0.569726 0.253213 0.62080  0.0821716381766
 H1 0.024361 0.138309 0.49240  0.0821716381766
 H1 0.524364 0.138308 0.49240  0.0821716381766
 H1 0.101964 0.121326 0.39232  0.0821716381766
 H1 0.601966 0.121324 0.39232  0.0821716381766
 H1 0.23294 0.331437 0.42  0.0821716381766
 H1 0.732938 0.33144 0.42899  0.0821716381766
 H1 0.160443 0.358279 0.52674  0.0821716381766
 H1 0.66044 0.358281 0.5267  0.0821716381766
 H1 0.349762 0.447522 0.26079  0.0821716381766
 H1 0.849767 0.447525 0.26079  0.0821716381766
 H1 0.059314 0.569001 0.31259  0.0821716381766
 H1 0.559322 0.569004 0.31260  0.0821716381766
 H1 0.478847 0.347339 0.40450  0.0821716381766
 H1 0.97885 0.34734 0.40451  0.0821716381766
 H1 0.166816 0.531428 0.35149  0.0821716381766
 H1 0.666817 0.531433 0.35149  0.0821716381766
 H1 0.117946 0.577297 0.41226  0.0821716381766
 H1 0.617945 0.577299 0.41226  0.0821716381766
 H1 0.276593 0.482539 0.38130  0.0821716381766
 H1 0.776592 0.48254 0.38130  0.0821716381766
 H1 0.132974 0.53978 0.53450  0.0821716381766
 H1 0.632974 0.539781 0.53450  0.0821716381766
 H1 0.19761 0.380574 0.25646  0.0821716381766
 H1 0.697612 0.380574 0.25646  0.0821716381766
 H1 0.120583 0.432504 0.17101  0.0821716381766
 H1 0.620584 0.432504 0.17101  0.0821716381766
 H1 0.994328 0.203873 0.15992  0.0821716381766
 H1 0.494329 0.203875 0.15992  0.0821716381766
 H1 0.076139 0.160722 0.24767  0.0821716381766
 H1 0.576138 0.160722 0.24768  0.0821716381766
 H1 0.037856 0.337786 0.05483  0.0821716381766
 H1 0.537867 0.337787 0.05483  0.0821716381766
 H1 0.007965 0.41082 0.10444  0.0821716381766
 H1 0.507971 0.41082 0.10444  0.0821716381766
 H1 0.397325 0.368159 0.0181  0.0821716381766
 H1 0.897325 0.368161 0.01816  0.0821716381766
 H1 0.43913 0.286755 0.99322  0.0821716381766
 H1 0.93913 0.286758 0.99322  0.0821716381766
 H1 0.337278 0.194295 0.0357  0.0821716381766
 H1 0.837278 0.194296 0.0357  0.0821716381766
 H1 0.307266 0.260513 0.97862  0.0821716381766
 H1 0.807267 0.260518 0.97862  0.0821716381766
 H1 0.278467 0.29928 0.18039  0.0821716381766
 H1 0.778468 0.299279 0.180  0.0821716381766
 H1 0.318849 0.216676 0.15772  0.0821716381766
 H1 0.81885 0.216674 0.1577  0.0821716381766
 H1 0.411638 0.321659 0.19557  0.0821716381766
 H1 0.911639 0.321657 0.19558  0.0821716381766
 H1 0.3822 0.389783 0.13982  0.0821716381766
 H1 0.882201 0.389782 0.1398  0.0821716381766
 H1 0.212619 0.170359 0.07801  0.0821716381766
 H1 0.71262 0.170359 0.07801  0.0821716381766
 H1 0.180412 0.24674 0.12084  0.0821716381766
 H1 0.680411 0.246738 0.12084  0.0821716381766
 H1 0.225858 0.361469 0.99233  0.0821716381766
 H1 0.725855 0.361471 0.9923  0.0821716381766
 H1 0.148241 0.378475 0.89225  0.0821716381766
 H1 0.648238 0.378477 0.89225  0.0821716381766
 H1 0.017058 0.168536 0.92906  0.0821716381766
 H1 0.517059 0.168534 0.9290  0.0821716381766
 H1 0.089544 0.141688 0.02683  0.0821716381766
 H1 0.589545 0.141685 0.02683  0.0821716381766
 H1 0.099809 0.947573 0.23918  0.0821716381766
 H1 0.599809 0.947573 0.23918  0.0821716381766
 H1 0.309386 0.068955 0.18739  0.0821716381766
 H1 0.809385 0.068956 0.18739  0.0821716381766
 H1 0.228812 0.847331 0.09547  0.0821716381766
 H1 0.728812 0.847332 0.09547  0.0821716381766
 H1 0.416874 0.031274 0.14853  0.0821716381766
 H1 0.916875 0.031276 0.14853  0.0821716381766
 H1 0.368017 0.07725 0.08780  0.0821716381766
 H1 0.868021 0.077249 0.08780  0.0821716381766
 H1 0.026655 0.982509 0.11867  0.0821716381766
 H1 0.526661 0.982506 0.11867  0.0821716381766
 H1 0.38293 0.039719 0.96551  0.0821716381766
 H1 0.882939 0.039716 0.96551  0.0821716381766
 H1 0.447494 0.880639 0.24344  0.0821716381766
 H1 0.947491 0.880641 0.24344  0.0821716381766
 H1 0.37042 0.932625 0.32879  0.0821716381766
 H1 0.870418 0.932625 0.32879  0.0821716381766
 H1 0.244216 0.703978 0.33998  0.0821716381766
 H1 0.744216 0.703978 0.33998  0.0821716381766
 H1 0.326063 0.660768 0.25231  0.0821716381766
 H1 0.826065 0.660767 0.25231  0.0821716381766
 H1 0.287774 0.838045 0.44500  0.0821716381766
 H1 0.787773 0.838047 0.44500  0.0821716381766
 H1 0.257802 0.910977 0.39532  0.0821716381766
 H1 0.757802 0.910979 0.39532  0.0821716381766
 H1 0.147291 0.868439 0.48167  0.0821716381766
 H1 0.647289 0.868439 0.4816  0.0821716381766
 H1 0.189097 0.787057 0.50668  0.0821716381766
 H1 0.689098 0.787061 0.50668  0.0821716381766
 H1 0.087192 0.694551 0.46430  0.0821716381766
 H1 0.587195 0.694551 0.46430  0.0821716381766
 H1 0.057248 0.76087 0.52136  0.0821716381766
 H1 0.55725 0.76087 0.52136  0.0821716381766
 H1 0.028253 0.799332 0.31957  0.0821716381766
 H1 0.528254 0.799327 0.31957  0.0821716381766
 H1 0.06864 0.716746 0.34232  0.0821716381766
 H1 0.568643 0.716746 0.34232  0.0821716381766
 H1 0.161399 0.821654 0.30431  0.0821716381766
 H1 0.661399 0.821655 0.30431  0.0821716381766
 H1 0.132042 0.889874 0.36001  0.0821716381766
 H1 0.632039 0.889872 0.36000  0.0821716381766
 H1 0.462569 0.670511 0.42205  0.0821716381766
 H1 0.962573 0.670515 0.4220  0.0821716381766
 H1 0.430276 0.746813 0.37918  0.0821716381766
 H1 0.930287 0.74682 0.37918  0.0821716381766
 H1 0.475644 0.861707 0.50758  0.0821716381766
 H1 0.975645 0.861711 0.50758  0.0821716381766
 H1 0.398041 0.878687 0.60766  0.0821716381766
 H1 0.898041 0.878687 0.60766  0.0821716381766
 H1 0.267065 0.668576 0.57098  0.0821716381766
 H1 0.767066 0.668577 0.57098  0.0821716381766
 H1 0.339562 0.641739 0.47324  0.0821716381766
 H1 0.839564 0.64174 0.4732  0.0821716381766
 H1 0.150235 0.552485 0.73918  0.0821716381766
 H1 0.65024 0.552489 0.73919  0.0821716381766
 H1 0.440677 0.431009 0.68738  0.0821716381766
 H1 0.940686 0.431012 0.68738  0.0821716381766
 H1 0.021152 0.652673 0.59547  0.0821716381766
 H1 0.521155 0.652674 0.59547  0.0821716381766
 H1 0.333183 0.468582 0.64848  0.0821716381766
 H1 0.833184 0.468587 0.64849  0.0821716381766
 H1 0.382054 0.422717 0.58771  0.0821716381766
 H1 0.882054 0.422719 0.58772  0.0821716381766
 H1 0.22341 0.517479 0.6186  0.0821716381766
 H1 0.723408 0.51748 0.61868  0.0821716381766
 H1 0.367028 0.460238 0.4654  0.0821716381766
 H1 0.867028 0.460239 0.46548  0.0821716381766
 H1 0.302394 0.619435 0.74351  0.0821716381766
 H1 0.802395 0.619437 0.74352  0.0821716381766
 H1 0.379423 0.567502 0.82896  0.0821716381766
 H1 0.879424 0.567505 0.82897  0.0821716381766
 H1 0.505674 0.796133 0.84006  0.0821716381766
 H1 0.0 0.796138 0.84006  0.0821716381766
 H1 0.423863 0.839289 0.7523  0.0821716381766
 H1 0.923863 0.839289 0.7523  0.0821716381766
 H1 0.462138 0.662215 0.9451  0.0821716381766
 H1 0.962149 0.662225 0.94515  0.0821716381766
 H1 0.492035 0.589184 0.89553  0.0821716381766
 H1 0.992039 0.589189 0.89554  0.0821716381766
 H1 0.102681 0.631848 0.9818  0.0821716381766
 H1 0.602682 0.631844 0.98182  0.0821716381766
 H1 0.060877 0.713252 0.00676  0.0821716381766
 H1 0.560876 0.713247 0.0067  0.0821716381766
 H1 0.16273 0.805711 0.96422  0.0821716381766
 H1 0.662727 0.80571 0.96422  0.0821716381766
 H1 0.192741 0.73949 0.02135  0.0821716381766
 H1 0.692741 0.73949 0.02135  0.0821716381766
 H1 0.221535 0.700723 0.81958  0.0821716381766
 H1 0.721538 0.70073 0.81958  0.0821716381766
 H1 0.181156 0.78333 0.84226  0.0821716381766
 H1 0.681154 0.783332 0.84226  0.0821716381766
 H1 0.088365 0.678347 0.80440  0.0821716381766
 H1 0.588367 0.678348 0.80440  0.0821716381766
 H1 0.117802 0.610223 0.86015  0.0821716381766
 H1 0.617806 0.610224 0.86015  0.0821716381766
 H1 0.287386 0.829646 0.9219  0.0821716381766
 H1 0.787383 0.82965 0.92196  0.0821716381766
 H1 0.319594 0.753265 0.87913  0.0821716381766
 H1 0.819593 0.753272 0.8791  0.0821716381766
 H1 0.274157 0.638533 0.00763  0.0821716381766
 H1 0.774156 0.638534 0.00763  0.0821716381766
 H1 0.351772 0.621528 0.10772  0.0821716381766
 H1 0.851771 0.62153 0.10772  0.0821716381766
 H1 0.482943 0.831478 0.07092  0.0821716381766
 H1 0.982942 0.83148 0.07092  0.0821716381766
 H1 0.410458 0.858324 0.97314  0.0821716381766
 H1 0.910455 0.858327 0.97314  0.0821716381766
 C1 0.401171 0.179097 0.84268  0.654369230769
 C1 0.901174 0.179097 0.84268  0.654369230769
 C2 0.342221 0.110044 0.83386  0.0233872307692
 C2 0.842222 0.110045 0.83386  0.0233872307692
 C3 0.350936 0.04984 0.78982  -0.169666880342
 C3 0.850936 0.049841 0.78982  -0.169666880342
 C2 0.296129 0.986131 0.78242  0.0233872307692
 C2 0.796129 0.986132 0.78242  0.0233872307692
 C1 0.307687 0.921723 0.73555  0.654369230769
 C1 0.807687 0.921724 0.73555  0.654369230769
 C3 0.231956 0.981696 0.81947  -0.169666880342
 C3 0.731956 0.981696 0.81947  -0.169666880342
 C4 0.223286 0.041672 0.86359  0.247404230769
 C4 0.723287 0.041673 0.86359  0.247404230769
 C3 0.278233 0.105907 0.87042  -0.169666880342
 C3 0.778234 0.105908 0.87042  -0.169666880342
 C5 0.107546 0.975443 0.90106  0.103744230769
 C5 0.60755 0.975441 0.90106  0.103744230769
 C2 0.051501 0.987121 0.95190  0.0233872307692
 C2 0.551508 0.987117 0.95191  0.0233872307692
 C3 0.485182 0.009381 0.93334  -0.169666880342
 C3 0.985192 0.009381 0.93334  -0.169666880342
 C3 0.065778 0.97775 0.01909  -0.169666880342
 C3 0.565787 0.977747 0.01909  -0.169666880342
 C6 0.098496 0.15633 0.73416  0.180934230769
 C6 0.598499 0.156332 0.73416  0.180934230769
 C3 0.14121 0.128356 0.6862  -0.169666880342
 C3 0.641212 0.128359 0.6862  -0.169666880342
 C2 0.198081 0.178902 0.65729  0.0233872307692
 C2 0.698082 0.178906 0.65729  0.0233872307692
 C3 0.210993 0.255699 0.68063  -0.169666880342
 C3 0.710992 0.255704 0.68063  -0.169666880342
 C6 0.166454 0.279589 0.72899  0.180934230769
 C6 0.666454 0.279592 0.72899  0.180934230769
 C7 0.241626 0.152938 0.60089  0.0123475641026
 C7 0.741628 0.152945 0.60089  0.0123475641026
 C7 0.34615 0.192582 0.53079  0.0123475641026
 C7 0.846153 0.192587 0.53079  0.0123475641026
 C7 0.419918 0.243453 0.52809  0.0123475641026
 C7 0.919922 0.243457 0.52809  0.0123475641026
 C7 0.436365 0.222352 0.64375  0.0123475641026
 C7 0.936369 0.222356 0.64375  0.0123475641026
 C7 0.362227 0.172556 0.64661  0.0123475641026
 C7 0.862228 0.172561 0.64661  0.0123475641026
 C7 0.040145 0.265805 0.57599  0.0123475641026
 C7 0.540152 0.265804 0.57599  0.0123475641026
 C2 0.085486 0.250134 0.51732  0.0233872307692
 C2 0.585488 0.250133 0.51732  0.0233872307692
 C3 0.070303 0.182167 0.47938  -0.169666880342
 C3 0.570307 0.182165 0.47938  -0.169666880342
 C6 0.112701 0.172073 0.42459  0.180934230769
 C6 0.612702 0.172073 0.42459  0.180934230769
 C6 0.186392 0.290037 0.44463  0.180934230769
 C6 0.686391 0.290039 0.44463  0.180934230769
 C3 0.145794 0.304177 0.49933  -0.169666880342
 C3 0.645794 0.304178 0.49933  -0.169666880342
 C1 0.348845 0.320906 0.34270  0.654369230769
 C1 0.848848 0.320909 0.34270  0.654369230769
 C2 0.407781 0.389955 0.33386  0.0233872307692
 C2 0.907787 0.389958 0.33386  0.0233872307692
 C3 0.399032 0.450149 0.28982  -0.169666880342
 C3 0.899038 0.450152 0.28982  -0.169666880342
 C2 0.453822 0.513892 0.28242  0.0233872307692
 C2 0.953828 0.513893 0.28242  0.0233872307692
 C1 0.442247 0.578305 0.23555  0.654369230769
 C1 0.942253 0.578304 0.23555  0.654369230769
 C3 0.017993 0.518346 0.31948  -0.169666880342
 C3 0.518003 0.518347 0.31948  -0.169666880342
 C4 0.026696 0.458357 0.36359  0.247404230769
 C4 0.526705 0.458358 0.36359  0.247404230769
 C3 0.47178 0.394109 0.37042  -0.169666880342
 C3 0.971786 0.394109 0.37042  -0.169666880342
 C5 0.142415 0.524655 0.40110  0.103744230769
 C5 0.642417 0.524659 0.40110  0.103744230769
 C2 0.198483 0.51295 0.4519  0.0233872307692
 C2 0.698485 0.512957 0.45193  0.0233872307692
 C3 0.264781 0.490647 0.43334  -0.169666880342
 C3 0.764781 0.490649 0.43334  -0.169666880342
 C3 0.184238 0.522304 0.51911  -0.169666880342
 C3 0.684238 0.522305 0.51911  -0.169666880342
 C6 0.151618 0.343612 0.2340  0.180934230769
 C6 0.651619 0.343612 0.23409  0.180934230769
 C3 0.108928 0.371552 0.18612  -0.169666880342
 C3 0.608931 0.371552 0.18612  -0.169666880342
 C2 0.052059 0.320989 0.15717  0.0233872307692
 C2 0.552063 0.320989 0.15717  0.0233872307692
 C3 0.039126 0.244212 0.18055  -0.169666880342
 C3 0.539128 0.244212 0.18055  -0.169666880342
 C6 0.083638 0.220356 0.22896  0.180934230769
 C6 0.583639 0.220356 0.22896  0.180934230769
 C7 0.008505 0.346901 0.10074  0.0123475641026
 C7 0.508514 0.346901 0.10074  0.0123475641026
 C7 0.403918 0.307174 0.03071  0.0123475641026
 C7 0.903921 0.307176 0.03071  0.0123475641026
 C7 0.330155 0.256291 0.02811  0.0123475641026
 C7 0.830157 0.256292 0.02811  0.0123475641026
 C7 0.313814 0.277572 0.14374  0.0123475641026
 C7 0.813815 0.277571 0.1437  0.0123475641026
 C7 0.387952 0.327382 0.14652  0.0123475641026
 C7 0.887954 0.327382 0.14653  0.0123475641026
 C7 0.20995 0.234074 0.07604  0.0123475641026
 C7 0.709949 0.234074 0.07604  0.0123475641026
 C2 0.164612 0.249739 0.01735  0.0233872307692
 C2 0.66461 0.249738 0.01735  0.0233872307692
 C3 0.179863 0.317656 0.97934  -0.169666880342
 C3 0.679862 0.317657 0.97934  -0.169666880342
 C6 0.137462 0.327758 0.92455  0.180934230769
 C6 0.637459 0.32776 0.92455  0.180934230769
 C6 0.063652 0.209897 0.94466  0.180934230769
 C6 0.563652 0.209897 0.94466  0.180934230769
 C3 0.104244 0.195752 0.99939  -0.169666880342
 C3 0.604245 0.195749 0.99939  -0.169666880342
 C1 0.09883 0.820919 0.15730  0.654369230769
 C1 0.598834 0.820918 0.15730  0.654369230769
 C2 0.157781 0.88997 0.16612  0.0233872307692
 C2 0.657783 0.889971 0.16612  0.0233872307692
 C3 0.149065 0.950173 0.2101  -0.169666880342
 C3 0.649065 0.950174 0.21015  -0.169666880342
 C2 0.203874 0.013881 0.21756  0.0233872307692
 C2 0.703874 0.013882 0.21756  0.0233872307692
 C1 0.192317 0.078289 0.26443  0.654369230769
 C1 0.692318 0.07829 0.26443  0.654369230769
 C3 0.268046 0.018316 0.1805  -0.169666880342
 C3 0.768046 0.018316 0.1805  -0.169666880342
 C4 0.276715 0.958339 0.13639  0.247404230769
 C4 0.776717 0.95834 0.13639  0.247404230769
 C3 0.221769 0.894104 0.12955  -0.169666880342
 C3 0.72177 0.894107 0.12955  -0.169666880342
 C5 0.392452 0.024572 0.09891  0.103744230769
 C5 0.892456 0.024572 0.09891  0.103744230769
 C2 0.448494 0.012895 0.04807  0.0233872307692
 C2 0.948501 0.012894 0.04807  0.0233872307692
 C3 0.01481 0.990634 0.06664  -0.169666880342
 C3 0.514819 0.990631 0.06664  -0.169666880342
 C3 0.434215 0.022266 0.98088  -0.169666880342
 C3 0.934224 0.022265 0.9808  -0.169666880342
 C6 0.401502 0.843682 0.26581  0.180934230769
 C6 0.9015 0.843683 0.26581  0.180934230769
 C3 0.358787 0.871657 0.31372  -0.169666880342
 C3 0.858787 0.871656 0.31372  -0.169666880342
 C2 0.301924 0.821107 0.34268  0.0233872307692
 C2 0.80192 0.821108 0.34268  0.0233872307692
 C3 0.289009 0.744311 0.3193  -0.169666880342
 C3 0.789012 0.744309 0.31935  -0.169666880342
 C6 0.333551 0.72042 0.27098  0.180934230769
 C6 0.833549 0.72042 0.27098  0.180934230769
 C7 0.258379 0.847068 0.3990  0.0123475641026
 C7 0.758378 0.84707 0.3990  0.0123475641026
 C7 0.153854 0.807426 0.46919  0.0123475641026
 C7 0.653855 0.807428 0.46919  0.0123475641026
 C7 0.080083 0.75656 0.47188  0.0123475641026
 C7 0.580086 0.75656 0.47188  0.0123475641026
 C7 0.063635 0.777669 0.3562  0.0123475641026
 C7 0.563638 0.777668 0.35623  0.0123475641026
 C7 0.137776 0.827461 0.3533  0.0123475641026
 C7 0.637779 0.827459 0.35337  0.0123475641026
 C7 0.459851 0.734217 0.42399  0.0123475641026
 C7 0.959858 0.734221 0.42399  0.0123475641026
 C2 0.414516 0.749885 0.48266  0.0233872307692
 C2 0.91452 0.749886 0.48266  0.0233872307692
 C3 0.4297 0.81785 0.52060  -0.169666880342
 C3 0.929703 0.817851 0.52060  -0.169666880342
 C6 0.387304 0.827941 0.57539  0.180934230769
 C6 0.887304 0.827943 0.5753  0.180934230769
 C6 0.313613 0.709977 0.55535  0.180934230769
 C6 0.813613 0.709979 0.55535  0.180934230769
 C3 0.354209 0.69584 0.5006  -0.169666880342
 C3 0.854212 0.695841 0.5006  -0.169666880342
 C1 0.151156 0.679107 0.6572  0.654369230769
 C1 0.65116 0.679109 0.6572  0.654369230769
 C2 0.092217 0.610057 0.66612  0.0233872307692
 C2 0.592223 0.610058 0.66612  0.0233872307692
 C3 0.100965 0.549859 0.71016  -0.169666880342
 C3 0.600971 0.549863 0.71016  -0.169666880342
 C2 0.046173 0.486119 0.71756  0.0233872307692
 C2 0.54618 0.486121 0.71756  0.0233872307692
 C1 0.057752 0.421711 0.76443  0.654369230769
 C1 0.557757 0.421709 0.76443  0.654369230769
 C3 0.481998 0.481665 0.68050  -0.169666880342
 C3 0.982007 0.481667 0.68050  -0.169666880342
 C4 0.473297 0.541657 0.63639  0.247404230769
 C4 0.973305 0.541657 0.63639  0.247404230769
 C3 0.028218 0.605902 0.62955  -0.169666880342
 C3 0.528224 0.605904 0.62955  -0.169666880342
 C5 0.357584 0.475357 0.59887  0.103744230769
 C5 0.857586 0.475361 0.59888  0.103744230769
 C2 0.301516 0.487061 0.54805  0.0233872307692
 C2 0.801518 0.487067 0.54805  0.0233872307692
 C3 0.23522 0.509369 0.56664  -0.169666880342
 C3 0.73522 0.509371 0.56664  -0.169666880342
 C3 0.315763 0.477712 0.48087  -0.169666880342
 C3 0.815763 0.477714 0.48087  -0.169666880342
 C6 0.348386 0.656397 0.76589  0.180934230769
 C6 0.848387 0.656399 0.76589  0.180934230769
 C3 0.391075 0.628455 0.81385  -0.169666880342
 C3 0.891078 0.628457 0.81385  -0.169666880342
 C2 0.447942 0.679017 0.84281  0.0233872307692
 C2 0.947945 0.679021 0.84281  0.0233872307692
 C3 0.460876 0.755796 0.81943  -0.169666880342
 C3 0.960879 0.755798 0.81943  -0.169666880342
 C6 0.416365 0.779654 0.7710  0.180934230769
 C6 0.916365 0.779656 0.77102  0.180934230769
 C7 0.491492 0.653103 0.89924  0.0123475641026
 C7 0.9915 0.653108 0.89924  0.0123475641026
 C7 0.096085 0.692832 0.96926  0.0123475641026
 C7 0.596087 0.692829 0.96926  0.0123475641026
 C7 0.169851 0.743715 0.9718  0.0123475641026
 C7 0.66985 0.743714 0.97187  0.0123475641026
 C7 0.18619 0.722433 0.85623  0.0123475641026
 C7 0.686191 0.722436 0.85623  0.0123475641026
 C7 0.11205 0.672624 0.85345  0.0123475641026
 C7 0.612053 0.672624 0.85345  0.0123475641026
 C7 0.290057 0.765931 0.92393  0.0123475641026
 C7 0.790055 0.765935 0.92394  0.0123475641026
 C2 0.335397 0.750268 0.98262  0.0233872307692
 C2 0.835396 0.75027 0.98262  0.0233872307692
 C3 0.320148 0.682349 0.02063  -0.169666880342
 C3 0.820146 0.682352 0.02063  -0.169666880342
 C6 0.36255 0.672247 0.07542  0.180934230769
 C6 0.86255 0.672248 0.07542  0.180934230769
 C6 0.436352 0.790113 0.05531  0.180934230769
 C6 0.936351 0.790115 0.05531  0.180934230769
 C3 0.39576 0.804259 0.  -0.169666880342
 C3 0.895757 0.804262 0.  -0.169666880342
 N1 0.109867 0.231217 0.7550  -0.355085769231
 N1 0.609869 0.231219 0.7550  -0.355085769231
 N2 0.313997 0.197428 0.59628  -0.351930769231
 N2 0.813998 0.197436 0.59628  -0.351930769231
 N2 0.468712 0.218887 0.57806  -0.351930769231
 N2 0.968717 0.218894 0.57806  -0.351930769231
 N1 0.169779 0.225669 0.40677  -0.355085769231
 N1 0.66978 0.22567 0.40677  -0.355085769231
 N1 0.140214 0.268747 0.25500  -0.355085769231
 N1 0.640215 0.268747 0.25500  -0.355085769231
 N2 0.436128 0.302434 0.09620  -0.351930769231
 N2 0.936132 0.302438 0.09620  -0.351930769231
 N2 0.281413 0.28094 0.07806  -0.351930769231
 N2 0.781415 0.280939 0.07806  -0.351930769231
 N1 0.080317 0.274219 0.90676  -0.355085769231
 N1 0.580317 0.274219 0.90676  -0.355085769231
 N1 0.390131 0.768795 0.24494  -0.355085769231
 N1 0.890133 0.768794 0.2449  -0.355085769231
 N2 0.186005 0.802586 0.40369  -0.351930769231
 N2 0.686008 0.802581 0.40369  -0.351930769231
 N2 0.031289 0.781126 0.42192  -0.351930769231
 N2 0.531293 0.781129 0.42192  -0.351930769231
 N1 0.330226 0.774344 0.59321  -0.355085769231
 N1 0.830229 0.774344 0.59321  -0.355085769231
 N1 0.35979 0.731263 0.74497  -0.355085769231
 N1 0.859791 0.731264 0.74497  -0.355085769231
 N2 0.063873 0.697569 0.90377  -0.351930769231
 N2 0.563877 0.697571 0.90377  -0.351930769231
 N2 0.218591 0.719066 0.92191  -0.351930769231
 N2 0.718591 0.719069 0.9219  -0.351930769231
 N1 0.41969 0.72579 0.09321  -0.355085769231
 N1 0.919689 0.725791 0.09321  -0.355085769231
 O1 0.459952 0.176444 0.80813  -0.608680769231
 O1 0.959955 0.176445 0.80813  -0.608680769231
 O2 0.393175 0.233255 0.88099  -0.601315769231
 O2 0.893178 0.233255 0.88099  -0.601315769231
 O2 0.365314 0.926551 0.70308  -0.601315769231
 O2 0.865316 0.92655 0.70308  -0.601315769231
 O1 0.255658 0.862665 0.73326  -0.608680769231
 O1 0.755659 0.862664 0.73326  -0.608680769231
 O3 0.163088 0.04309 0.90258  -0.291285769231
 O3 0.66309 0.043088 0.90258  -0.291285769231
 O1 0.29006 0.323542 0.30814  -0.608680769231
 O1 0.790065 0.323546 0.30814  -0.608680769231
 O2 0.356859 0.26675 0.38101  -0.601315769231
 O2 0.856863 0.266751 0.38101  -0.601315769231
 O2 0.384627 0.573469 0.20305  -0.601315769231
 O2 0.884631 0.573469 0.2030  -0.601315769231
 O1 0.494286 0.637358 0.23326  -0.608680769231
 O1 0.994289 0.637359 0.23326  -0.608680769231
 O3 0.086911 0.456955 0.40257  -0.291285769231
 O3 0.586918 0.456956 0.4025  -0.291285769231
 O1 0.04005 0.823571 0.19185  -0.608680769231
 O1 0.540054 0.823572 0.19185  -0.608680769231
 O2 0.106826 0.766758 0.11899  -0.601315769231
 O2 0.606828 0.766759 0.11899  -0.601315769231
 O2 0.134691 0.073464 0.29690  -0.601315769231
 O2 0.634694 0.073463 0.29690  -0.601315769231
 O1 0.244348 0.137346 0.26672  -0.608680769231
 O1 0.74435 0.137346 0.26672  -0.608680769231
 O3 0.336913 0.956924 0.09740  -0.291285769231
 O3 0.836916 0.956924 0.09740  -0.291285769231
 O1 0.209941 0.67647 0.69184  -0.608680769231
 O1 0.709945 0.676474 0.69184  -0.608680769231
 O2 0.143141 0.733261 0.61896  -0.601315769231
 O2 0.643144 0.733263 0.6189  -0.601315769231
 O2 0.115377 0.426545 0.79692  -0.601315769231
 O2 0.61538 0.426546 0.79692  -0.601315769231
 O1 0.005719 0.362653 0.76672  -0.608680769231
 O1 0.505721 0.362654 0.76672  -0.608680769231
 O3 0.413084 0.543059 0.59740  -0.291285769231
 O3 0.913091 0.543061 0.59740  -0.291285769231
