#======================================================================

# CRYSTAL DATA

#----------------------------------------------------------------------

data_VESTA_phase_1


_pd_phase_name                         MOF
_cell_length_a                         18.94200
_cell_length_b                         18.96000
_cell_length_c                         18.96500
_cell_angle_alpha                      59.98300
_cell_angle_beta                       60.02300
_cell_angle_gamma                      60.01700
_symmetry_space_group_name_H-M         "P 1"
_symmetry_Int_Tables_number            1

loop_
_symmetry_equiv_pos_as_xyz
   "x, y, z"

loop_
   _atom_site_label
   _atom_site_fract_x
   _atom_site_fract_y
   _atom_site_fract_z
 _atom_site_charge
 Zn1 0.500146 0.067578 0.49990  1.16842858974
 Zn1 0.067617 0.500198 0.9324  1.16842858974
 Zn1 0.499761 0.932516 0.49999  1.16842858974
 Zn1 0.932368 0.500023 0.0675  1.16842858974
 Zn1 0.499896 0.499894 0.93245  1.16842858974
 Zn1 0.067594 0.932365 0.49993  1.16842858974
 Zn1 0.500225 0.499995 0.06739  1.16842858974
 Zn1 0.932391 0.067596 0.49986  1.16842858974
 Zn1 0.499895 0.932335 0.0675  1.16842858974
 Zn1 0.067596 0.500058 0.50007  1.16842858974
 Zn1 0.499988 0.067623 0.93239  1.16842858974
 Zn1 0.932359 0.499859 0.5000  1.16842858974
 H1 0.766624 0.993488 0.47287  0.107688589744
 H1 0.993804 0.766616 0.76688  0.107688589744
 H1 0.473623 0.766711 0.76612  0.107688589744
 H1 0.766919 0.473302 0.99330  0.107688589744
 H1 0.7665 0.473142 0.76659  0.107688589744
 H1 0.993899 0.766564 0.47289  0.107688589744
 H1 0.473559 0.766213 0.99340  0.107688589744
 H1 0.766978 0.99401 0.76649  0.107688589744
 H1 0.766616 0.767141 0.99380  0.107688589744
 H1 0.993747 0.473762 0.76603  0.107688589744
 H1 0.473922 0.993454 0.76648  0.107688589744
 H1 0.766824 0.766464 0.47259  0.107688589744
 H1 0.005991 0.233678 0.52707  0.107688589744
 H1 0.233347 0.006059 0.23292  0.107688589744
 H1 0.233277 0.5268 0.23379  0.107688589744
 H1 0.526425 0.233228 0.00648  0.107688589744
 H1 0.526365 0.233704 0.2332  0.107688589744
 H1 0.233011 0.006497 0.52702  0.107688589744
 H1 0.233485 0.526712 0.00673  0.107688589744
 H1 0.006155 0.233082 0.23342  0.107688589744
 H1 0.232926 0.233402 0.00608  0.107688589744
 H1 0.526025 0.006488 0.23391  0.107688589744
 H1 0.006333 0.526248 0.23367  0.107688589744
 H1 0.233335 0.233215 0.52739  0.107688589744
 C1 0.66489 0.929124 0.47614  0.742258589744
 C2 0.757476 0.88516 0.47159  -0.18680474359
 C1 0.929254 0.665043 0.92963  0.742258589744
 C2 0.885394 0.757634 0.88556  -0.18680474359
 C1 0.477146 0.929489 0.66455  0.742258589744
 C2 0.472686 0.885286 0.75704  -0.18680474359
 C1 0.929678 0.477053 0.92866  0.742258589744
 C2 0.885545 0.472433 0.88483  -0.18680474359
 C1 0.664915 0.476474 0.92937  0.742258589744
 C2 0.757446 0.47212 0.88515  -0.18680474359
 C1 0.929354 0.929174 0.47654  0.742258589744
 C2 0.885431 0.885216 0.47180  -0.18680474359
 C1 0.476944 0.664673 0.92886  0.742258589744
 C2 0.472529 0.75718 0.88491  -0.18680474359
 C1 0.929598 0.929212 0.66476  0.742258589744
 C2 0.885592 0.885467 0.75740  -0.18680474359
 C1 0.664942 0.9299 0.92911  0.742258589744
 C2 0.757544 0.885795 0.88531  -0.18680474359
 C1 0.929225 0.476873 0.6646  0.742258589744
 C2 0.885285 0.472347 0.75708  -0.18680474359
 C1 0.477017 0.928826 0.92939  0.742258589744
 C2 0.47263 0.884985 0.88515  -0.18680474359
 C1 0.929657 0.664759 0.47622  0.742258589744
 C2 0.885559 0.757276 0.47162  -0.18680474359
 C1 0.070527 0.335174 0.52381  0.742258589744
 C2 0.114488 0.242673 0.52836  -0.18680474359
 C1 0.334963 0.070698 0.07020  0.742258589744
 C2 0.24238 0.114556 0.1142  -0.18680474359
 C1 0.070509 0.52306 0.33545  0.742258589744
 C2 0.114614 0.527614 0.24297  -0.18680474359
 C1 0.522899 0.070501 0.0711  0.742258589744
 C2 0.527323 0.11465 0.11504  -0.18680474359
 C1 0.523095 0.335238 0.07039  0.742258589744
 C2 0.527464 0.242743 0.11467  -0.18680474359
 C1 0.070189 0.071202 0.523  0.742258589744
 C2 0.114297 0.114932 0.5281  -0.18680474359
 C1 0.335197 0.523444 0.07113  0.742258589744
 C2 0.242655 0.52784 0.11510  -0.18680474359
 C1 0.070821 0.070356 0.33506  0.742258589744
 C2 0.114592 0.114377 0.24245  -0.18680474359
 C1 0.070237 0.335136 0.07080  0.742258589744
 C2 0.114316 0.242509 0.11458  -0.18680474359
 C1 0.522813 0.071025 0.33534  0.742258589744
 C2 0.527284 0.114944 0.24285  -0.18680474359
 C1 0.0708 0.523085 0.07090  0.742258589744
 C2 0.114735 0.527606 0.11499  -0.18680474359
 C1 0.33501 0.070498 0.52378  0.742258589744
 C2 0.242418 0.114641 0.52834  -0.18680474359
 C3 0.800194 0.927688 0.47165  0.0381060897436
 C3 0.928004 0.800256 0.80032  0.0381060897436
 C3 0.47252 0.800084 0.79969  0.0381060897436
 C3 0.80034 0.472176 0.92749  0.0381060897436
 C3 0.800079 0.472089 0.79997  0.0381060897436
 C3 0.928037 0.80005 0.47166  0.0381060897436
 C3 0.47247 0.799798 0.92755  0.0381060897436
 C3 0.80041 0.928163 0.80008  0.0381060897436
 C3 0.8002 0.800559 0.92797  0.0381060897436
 C3 0.927924 0.472432 0.79965  0.0381060897436
 C3 0.472662 0.92764 0.7999  0.0381060897436
 C3 0.800307 0.799981 0.4714  0.0381060897436
 C3 0.071854 0.200076 0.52829  0.0381060897436
 C3 0.199758 0.071922 0.19952  0.0381060897436
 C3 0.199825 0.527867 0.20027  0.0381060897436
 C3 0.527506 0.199839 0.07234  0.0381060897436
 C3 0.527462 0.200134 0.19990  0.0381060897436
 C3 0.19954 0.07229 0.52826  0.0381060897436
 C3 0.199946 0.527827 0.07254  0.0381060897436
 C3 0.071947 0.199619 0.19980  0.0381060897436
 C3 0.199501 0.199811 0.07191  0.0381060897436
 C3 0.527295 0.072297 0.2002  0.0381060897436
 C3 0.072159 0.527568 0.20019  0.0381060897436
 C3 0.199743 0.199814 0.52848  0.0381060897436
 O1 0.62867 0.006031 0.47866  -0.642731410256
 O1 0.006171 0.628721 0.88651  -0.642731410256
 O1 0.479442 0.886512 0.62827  -0.642731410256
 O1 0.886572 0.479525 0.00555  -0.642731410256
 O1 0.628458 0.478923 0.8864  -0.642731410256
 O1 0.006286 0.885994 0.47918  -0.642731410256
 O1 0.479556 0.628353 0.00574  -0.642731410256
 O1 0.886467 0.006115 0.62836  -0.642731410256
 O1 0.628527 0.886774 0.00597  -0.642731410256
 O1 0.006159 0.479502 0.62834  -0.642731410256
 O1 0.47958 0.005756 0.88636  -0.642731410256
 O1 0.886547 0.628378 0.47877  -0.642731410256
 O1 0.99358 0.371419 0.52121  -0.642731410256
 O1 0.371287 0.993712 0.11326  -0.642731410256
 O1 0.113589 0.520667 0.3717  -0.642731410256
 O1 0.520452 0.113625 0.99419  -0.642731410256
 O1 0.520759 0.371609 0.11331  -0.642731410256
 O1 0.113306 0.994331 0.52065  -0.642731410256
 O1 0.371448 0.520848 0.99428  -0.642731410256
 O1 0.993944 0.113515 0.37141  -0.642731410256
 O1 0.113384 0.371606 0.99398  -0.642731410256
 O1 0.520147 0.994137 0.37171  -0.642731410256
 O1 0.993859 0.520476 0.11398  -0.642731410256
 O1 0.371508 0.113517 0.52119  -0.642731410256
 O1 0.371137 0.993615 0.52122  -0.642731410256
 O1 0.993353 0.371339 0.1140  -0.642731410256
 O1 0.52047 0.114149 0.37149  -0.642731410256
 O1 0.114012 0.520647 0.99400  -0.642731410256
 O1 0.37153 0.520976 0.11421  -0.642731410256
 O1 0.993297 0.114517 0.52057  -0.642731410256
 O1 0.520502 0.371397 0.99351  -0.642731410256
 O1 0.114086 0.993469 0.37132  -0.642731410256
 O1 0.37124 0.11399 0.99337  -0.642731410256
 O1 0.993609 0.520359 0.37165  -0.642731410256
 O1 0.520235 0.993618 0.11436  -0.642731410256
 O1 0.113729 0.371479 0.52123  -0.642731410256
 O1 0.006567 0.628574 0.47890  -0.642731410256
 O1 0.628735 0.00683 0.88587  -0.642731410256
 O1 0.886045 0.479312 0.62839  -0.642731410256
 O1 0.479529 0.885523 0.00630  -0.642731410256
 O1 0.479302 0.628453 0.88579  -0.642731410256
 O1 0.886121 0.00603 0.47920  -0.642731410256
 O1 0.6288 0.479044 0.00622  -0.642731410256
 O1 0.006439 0.885903 0.62852  -0.642731410256
 O1 0.885992 0.628723 0.00645  -0.642731410256
 O1 0.479844 0.006357 0.62831  -0.642731410256
 O1 0.006589 0.479719 0.88544  -0.642731410256
 O1 0.628492 0.885999 0.47876  -0.642731410256
