#======================================================================

# CRYSTAL DATA

#----------------------------------------------------------------------

data_VESTA_phase_1


_pd_phase_name                         MOF
_cell_length_a                         12.41600
_cell_length_b                         12.43900
_cell_length_c                         27.04900
_cell_angle_alpha                      90.02000
_cell_angle_beta                       89.98600
_cell_angle_gamma                      119.91100
_symmetry_space_group_name_H-M         "P 1"
_symmetry_Int_Tables_number            1

loop_
_symmetry_equiv_pos_as_xyz
   "x, y, z"

loop_
   _atom_site_label
   _atom_site_fract_x
   _atom_site_fract_y
   _atom_site_fract_z
 _atom_site_charge
 Zn1 0.000507 0.999392 0.66634  1.11490796537
 Zn1 0.999973 0.999354 0.33345  1.11490796537
 Zn1 0.999918 0.999226 0.00159  1.11490796537
 H1 0.334584 0.061178 0.77006  0.314327965368
 H1 0.318358 0.034926 0.71092  0.314327965368
 H2 0.201596 0.861444 0.79141  0.124568679654
 H2 0.121644 0.638982 0.78571  0.124568679654
 H2 0.134028 0.571177 0.729  0.124568679654
 H2 0.032218 0.633973 0.73363  0.124568679654
 H2 0.246086 0.70978 0.65478  0.124568679654
 H2 0.307992 0.871671 0.65864  0.124568679654
 H2 0.144316 0.772511 0.65648  0.124568679654
 H1 0.727723 0.663751 0.43609  0.314327965368
 H1 0.717185 0.681441 0.37711  0.314327965368
 H2 0.660339 0.796101 0.45857  0.124568679654
 H2 0.51837 0.877625 0.45339  0.124568679654
 H2 0.439179 0.867609 0.39735  0.124568679654
 H2 0.603697 0.968309 0.40179  0.124568679654
 H2 0.466839 0.758088 0.3218  0.124568679654
 H2 0.566054 0.694818 0.32524  0.124568679654
 H2 0.631294 0.8584 0.32400  0.124568679654
 H1 0.936618 0.272312 0.10457  0.314327965368
 H1 0.962805 0.281222 0.04543  0.314327965368
 H2 0.136816 0.338526 0.12596  0.124568679654
 H2 0.360363 0.47913 0.11950  0.124568679654
 H2 0.42744 0.557272 0.06309  0.124568679654
 H2 0.363524 0.393004 0.06773  0.124568679654
 H2 0.287997 0.530168 0.98861  0.124568679654
 H2 0.125593 0.43241 0.99298  0.124568679654
 H2 0.223081 0.365813 0.99073  0.124568679654
 H1 0.666407 0.937842 0.76985  0.314327965368
 H1 0.682531 0.964306 0.71074  0.314327965368
 H2 0.798953 0.137616 0.79136  0.124568679654
 H2 0.878788 0.360167 0.78573  0.124568679654
 H2 0.866123 0.42788 0.72976  0.124568679654
 H2 0.968233 0.365418 0.73360  0.124568679654
 H2 0.754439 0.289374 0.65482  0.124568679654
 H2 0.692467 0.127474 0.65863  0.124568679654
 H2 0.856156 0.226579 0.65644  0.124568679654
 H1 0.272063 0.335516 0.43605  0.314327965368
 H1 0.282682 0.317865 0.37706  0.314327965368
 H2 0.339677 0.203334 0.45849  0.124568679654
 H2 0.481647 0.121799 0.45319  0.124568679654
 H2 0.560784 0.131859 0.39711  0.124568679654
 H2 0.39628 0.031136 0.40158  0.124568679654
 H2 0.533046 0.241444 0.32165  0.124568679654
 H2 0.433808 0.304682 0.32517  0.124568679654
 H2 0.368587 0.141103 0.32385  0.124568679654
 H1 0.063168 0.726452 0.104  0.314327965368
 H1 0.036929 0.717469 0.04546  0.314327965368
 H2 0.862981 0.660287 0.12603  0.124568679654
 H2 0.639446 0.519707 0.11961  0.124568679654
 H2 0.572308 0.441483 0.06321  0.124568679654
 H2 0.636252 0.60576 0.06784  0.124568679654
 H2 0.711779 0.468502 0.98868  0.124568679654
 H2 0.874171 0.566337 0.99303  0.124568679654
 H2 0.776604 0.632842 0.99083  0.124568679654
 H1 0.272501 0.9376 0.89755  0.314327965368
 H1 0.282547 0.964331 0.95664  0.314327965368
 H2 0.339419 0.137309 0.87593  0.124568679654
 H2 0.481386 0.359997 0.88164  0.124568679654
 H2 0.56142 0.427805 0.93767  0.124568679654
 H2 0.39688 0.365023 0.93369  0.124568679654
 H2 0.534415 0.28968 0.01262  0.124568679654
 H2 0.435291 0.127648 0.00879  0.124568679654
 H2 0.369863 0.226091 0.01081  0.124568679654
 H1 0.063609 0.335165 0.23109  0.314327965368
 H1 0.035311 0.317339 0.29007  0.314327965368
 H2 0.863771 0.203367 0.20859  0.124568679654
 H2 0.640461 0.122029 0.21403  0.124568679654
 H2 0.571548 0.131902 0.27018  0.124568679654
 H2 0.635299 0.031119 0.2655  0.124568679654
 H2 0.709123 0.241565 0.34560  0.124568679654
 H2 0.871479 0.304526 0.34200  0.124568679654
 H2 0.773065 0.140997 0.34332  0.124568679654
 H1 0.663974 0.726631 0.56284  0.314327965368
 H1 0.681266 0.717642 0.62198  0.314327965368
 H2 0.797604 0.659872 0.54137  0.124568679654
 H2 0.880755 0.519012 0.54806  0.124568679654
 H2 0.868957 0.440712 0.60451  0.124568679654
 H2 0.96962 0.604913 0.59992  0.124568679654
 H2 0.756331 0.468263 0.6788  0.124568679654
 H2 0.69202 0.56634 0.67429  0.124568679654
 H2 0.85601 0.632575 0.67670  0.124568679654
 H1 0.727735 0.061367 0.89766  0.314327965368
 H1 0.717427 0.034497 0.95674  0.314327965368
 H2 0.660651 0.861647 0.87593  0.124568679654
 H2 0.518604 0.638978 0.88154  0.124568679654
 H2 0.438387 0.571116 0.93753  0.124568679654
 H2 0.602918 0.633737 0.93360  0.124568679654
 H2 0.465345 0.70917 0.01255  0.124568679654
 H2 0.564572 0.87119 0.00880  0.124568679654
 H2 0.629887 0.772646 0.01078  0.124568679654
 H1 0.93656 0.663615 0.2309  0.314327965368
 H1 0.964708 0.681625 0.28996  0.314327965368
 H2 0.136379 0.795591 0.20854  0.124568679654
 H2 0.359635 0.876999 0.21397  0.124568679654
 H2 0.428584 0.867313 0.27012  0.124568679654
 H2 0.364696 0.967966 0.26546  0.124568679654
 H2 0.290986 0.757727 0.3455  0.124568679654
 H2 0.128619 0.694711 0.34197  0.124568679654
 H2 0.227005 0.858243 0.34325  0.124568679654
 H1 0.336389 0.272521 0.56274  0.314327965368
 H1 0.319063 0.281365 0.62190  0.314327965368
 H2 0.202585 0.339107 0.5413  0.124568679654
 H2 0.119243 0.479807 0.54820  0.124568679654
 H2 0.130908 0.557904 0.60472  0.124568679654
 H2 0.030427 0.393692 0.6000  0.124568679654
 H2 0.243744 0.530519 0.67894  0.124568679654
 H2 0.308201 0.432576 0.6743  0.124568679654
 H2 0.144197 0.366186 0.67677  0.124568679654
 Pt1 0.500352 0.99944 0.74488  -0.0695587012987
 Pt1 0.49991 0.499681 0.41106  -0.0695587012987
 Pt1 0.999872 0.499365 0.07904  -0.0695587012987
 Pt1 0.500063 0.999503 0.92268  -0.0695587012987
 Pt1 9.8e-05 0.499477 0.25616  -0.0695587012987
 Pt1 0.500098 0.499551 0.58834  -0.0695587012987
 Au1 0.389537 0.777982 0.83374  -0.024792034632
 Au1 0.387993 0.609853 0.49992  -0.024792034632
 Au1 0.222185 0.609425 0.16746  -0.024792034632
 Au1 0.61078 0.220991 0.83379  -0.024792034632
 Au1 0.612013 0.389371 0.49981  -0.024792034632
 Au1 0.777785 0.389458 0.16750  -0.024792034632
 C1 0.225796 0.771698 0.72767  0.212641298701
 C2 0.214755 0.878415 0.7514  -0.0799153679654
 C3 0.122152 0.646013 0.74523  -0.386374534632
 C3 0.231244 0.782011 0.67113  -0.386374534632
 C4 0.101327 0.885231 0.73003  0.636597965368
 C1 0.547592 0.775012 0.39476  0.212641298701
 C2 0.664801 0.784433 0.41850  -0.0799153679654
 C3 0.525529 0.87838 0.41291  -0.386374534632
 C3 0.553421 0.771492 0.33820  -0.386374534632
 C4 0.78529 0.898127 0.39770  0.636597965368
 C1 0.226495 0.45015 0.06176  0.212641298701
 C2 0.119481 0.333696 0.08597  -0.0799153679654
 C3 0.352404 0.471519 0.07905  -0.386374534632
 C3 0.215116 0.444124 0.0052  -0.386374534632
 C4 0.111939 0.212984 0.06509  0.636597965368
 C1 0.774746 0.227396 0.72767  0.212641298701
 C2 0.785956 0.120743 0.75135  -0.0799153679654
 C3 0.878239 0.353166 0.74524  -0.386374534632
 C3 0.769253 0.217109 0.67113  -0.386374534632
 C4 0.89965 0.114251 0.73002  0.636597965368
 C1 0.45234 0.224427 0.39462  0.212641298701
 C2 0.335133 0.214939 0.41842  -0.0799153679654
 C3 0.474448 0.121065 0.41270  -0.386374534632
 C3 0.446464 0.228 0.33807  -0.386374534632
 C4 0.214703 0.101134 0.39765  0.636597965368
 C1 0.773255 0.548579 0.06183  0.212641298701
 C2 0.88029 0.665051 0.08604  -0.0799153679654
 C3 0.647368 0.527253 0.07916  -0.386374534632
 C3 0.784607 0.554579 0.00533  -0.386374534632
 C4 0.887779 0.78569 0.06515  0.636597965368
 C1 0.452808 0.227291 0.93972  0.212641298701
 C2 0.335291 0.120503 0.91594  -0.0799153679654
 C3 0.474802 0.352963 0.92212  -0.386374534632
 C3 0.447683 0.217073 0.99626  -0.386374534632
 C4 0.214892 0.113958 0.93709  0.636597965368
 C1 0.77249 0.224393 0.2725  0.212641298701
 C2 0.880033 0.214803 0.24866  -0.0799153679654
 C3 0.647034 0.121121 0.25450  -0.386374534632
 C3 0.782101 0.227928 0.3291  -0.386374534632
 C4 0.886753 0.100889 0.26928  0.636597965368
 C1 0.775581 0.548316 0.60563  0.212641298701
 C2 0.785289 0.664891 0.58137  -0.0799153679654
 C3 0.880044 0.526588 0.58850  -0.386374534632
 C3 0.769799 0.554377 0.66212  -0.386374534632
 C4 0.898787 0.785479 0.6021  0.636597965368
 C1 0.547169 0.771615 0.93968  0.212641298701
 C2 0.664756 0.878397 0.91595  -0.0799153679654
 C3 0.525093 0.645928 0.92203  -0.386374534632
 C3 0.552169 0.781748 0.99623  -0.386374534632
 C4 0.785107 0.884853 0.93708  0.636597965368
 C1 0.227628 0.774666 0.2725  0.212641298701
 C2 0.120054 0.784128 0.24860  -0.0799153679654
 C3 0.35305 0.877975 0.25444  -0.386374534632
 C3 0.217995 0.77128 0.32908  -0.386374534632
 C4 0.113182 0.89794 0.26925  0.636597965368
 C1 0.224518 0.450515 0.60570  0.212641298701
 C2 0.214923 0.334031 0.58137  -0.0799153679654
 C3 0.119958 0.472124 0.58864  -0.386374534632
 C3 0.230351 0.444437 0.66219  -0.386374534632
 C4 0.101557 0.213245 0.60211  0.636597965368
 S1 0.377539 0.784076 0.74674  -0.129070367965
 S1 0.407773 0.623337 0.41300  -0.129070367965
 S1 0.215527 0.590251 0.08054  -0.129070367965
 S1 0.622929 0.214782 0.74679  -0.129070367965
 S1 0.592126 0.376101 0.41289  -0.129070367965
 S1 0.784225 0.40849 0.08058  -0.129070367965
 S1 0.592291 0.214867 0.9207  -0.129070367965
 S1 0.784408 0.376187 0.25439  -0.129070367965
 S1 0.624653 0.408358 0.58675  -0.129070367965
 S1 0.407782 0.784139 0.92074  -0.129070367965
 S1 0.215805 0.622872 0.25436  -0.129070367965
 S1 0.375405 0.590613 0.58685  -0.129070367965
 N1 0.33215 0.00042 0.74372  -0.381962034632
 N1 0.669211 0.667098 0.41004  -0.381962034632
 N1 0.997606 0.329835 0.07813  -0.381962034632
 N1 0.668691 0.998642 0.7435  -0.381962034632
 N1 0.330618 0.332217 0.40999  -0.381962034632
 N1 0.002153 0.668897 0.07817  -0.381962034632
 N1 0.330811 0.998546 0.92382  -0.381962034632
 N1 0.001804 0.331914 0.2571  -0.381962034632
 N1 0.667425 0.669065 0.58926  -0.381962034632
 N1 0.669291 0.000378 0.92388  -0.381962034632
 N1 0.998319 0.666983 0.25707  -0.381962034632
 N1 0.332867 0.330001 0.58921  -0.381962034632
 O1 0.132777 0.981586 0.70244  -0.661775367965
 O2 0.995309 0.800785 0.73975  -0.555955367965
 O1 0.850016 0.867321 0.36953  -0.661775367965
 O2 0.806953 0.0 0.40835  -0.555955367965
 O1 0.015517 0.148304 0.0374  -0.661775367965
 O2 0.19589 0.190715 0.07519  -0.555955367965
 O1 0.868582 0.017822 0.7025  -0.661775367965
 O2 0.0 0.199053 0.73976  -0.555955367965
 O1 0.149981 0.131748 0.36941  -0.661775367965
 O2 0.1931 0.995685 0.40836  -0.555955367965
 O1 0.984188 0.850302 0.03746  -0.661775367965
 O2 0.803804 0.807935 0.07524  -0.555955367965
 O1 0.149846 0.017895 0.9647  -0.661775367965
 O2 0.193681 0.198537 0.92707  -0.555955367965
 O1 0.981904 0.131452 0.2976  -0.661775367965
 O2 0.803296 0.995463 0.25835  -0.555955367965
 O1 0.867612 0.850212 0.63010  -0.661775367965
 O2 0.0 0.807251 0.59170  -0.555955367965
 O1 0.850222 0.980903 0.96477  -0.661775367965
 O2 0.806279 0.800247 0.92703  -0.555955367965
 O1 0.017999 0.867232 0.2976  -0.661775367965
 O2 0.19655 0.0 0.25835  -0.555955367965
 O1 0.132982 0.148608 0.6299  -0.661775367965
 O2 0.995589 0.191193 0.591  -0.555955367965
