#======================================================================

# CRYSTAL DATA

#----------------------------------------------------------------------

data_VESTA_phase_1


_pd_phase_name                         MOF
_cell_length_a                         13.79000
_cell_length_b                         14.36700
_cell_length_c                         21.45600
_cell_angle_alpha                      90.11800
_cell_angle_beta                       90.02100
_cell_angle_gamma                      89.90900
_symmetry_space_group_name_H-M         "P 1"
_symmetry_Int_Tables_number            1

loop_
_symmetry_equiv_pos_as_xyz
   "x, y, z"

loop_
   _atom_site_label
   _atom_site_fract_x
   _atom_site_fract_y
   _atom_site_fract_z
 _atom_site_charge
 Zn1 0.529159 0.097724 0.94156  0.893743717949
 Zn1 0.470759 0.597835 0.55753  0.893743717949
 Zn1 0.470845 0.902294 0.05843  0.893743717949
 Zn1 0.529244 0.402182 0.44245  0.893743717949
 Zn1 0.970768 0.902207 0.44246  0.893743717949
 Zn1 0.029171 0.402234 0.05843  0.893743717949
 Zn1 0.029236 0.09781 0.55752  0.893743717949
 Zn1 0.970832 0.597783 0.94155  0.893743717949
 H1 0.47078 0.38028 0.8193  0.108539432234
 H1 0.545408 0.21403 0.74217  0.108539432234
 H1 0.479192 0.416007 0.70617  0.108539432234
 H1 0.559627 0.254109 0.62699  0.108539432234
 H1 0.360389 0.029174 0.86334  0.108539432234
 H1 0.180415 0.026946 0.86154  0.108539432234
 H1 0.185579 0.176082 0.03671  0.108539432234
 H1 0.366436 0.172432 0.03065  0.108539432234
 H1 0.03602 0.144677 0.99597  0.108539432234
 H1 0.019359 0.024964 0.87665  0.108539432234
 H1 0.711614 0.151109 0.02179  0.108539432234
 H1 0.891149 0.143077 0.01579  0.108539432234
 H1 0.856626 0.003387 0.83789  0.108539432234
 H1 0.677529 0.019934 0.85182  0.108539432234
 H1 0.529787 0.880996 0.68149  0.108539432234
 H1 0.453682 0.714136 0.75680  0.108539432234
 H1 0.520915 0.91514 0.79443  0.108539432234
 H1 0.439387 0.753817 0.87296  0.108539432234
 H1 0.639438 0.5302 0.6361  0.108539432234
 H1 0.819435 0.528352 0.63835  0.108539432234
 H1 0.814478 0.676109 0.46308  0.108539432234
 H1 0.633644 0.672198 0.468  0.108539432234
 H1 0.963882 0.6454 0.50423  0.108539432234
 H1 0.980743 0.525131 0.62298  0.108539432234
 H1 0.287808 0.650684 0.47777  0.108539432234
 H1 0.108366 0.642846 0.4840  0.108539432234
 H1 0.143732 0.504022 0.66178  0.108539432234
 H1 0.322761 0.520178 0.64757  0.108539432234
 H1 0.529222 0.619739 0.18062  0.108539432234
 H1 0.454595 0.78599 0.25781  0.108539432234
 H1 0.52081 0.584012 0.29381  0.108539432234
 H1 0.440377 0.74591 0.37299  0.108539432234
 H1 0.639614 0.970838 0.13665  0.108539432234
 H1 0.819587 0.973064 0.13844  0.108539432234
 H1 0.814425 0.823933 0.96328  0.108539432234
 H1 0.633568 0.827585 0.96933  0.108539432234
 H1 0.963983 0.855336 0.00401  0.108539432234
 H1 0.980645 0.975047 0.12334  0.108539432234
 H1 0.288389 0.848906 0.97819  0.108539432234
 H1 0.108854 0.856935 0.98420  0.108539432234
 H1 0.143378 0.996626 0.16209  0.108539432234
 H1 0.322475 0.980081 0.14816  0.108539432234
 H1 0.470226 0.119018 0.31849  0.108539432234
 H1 0.54632 0.285881 0.2431  0.108539432234
 H1 0.479097 0.084873 0.20556  0.108539432234
 H1 0.560614 0.246201 0.12702  0.108539432234
 H1 0.360564 0.469814 0.36387  0.108539432234
 H1 0.180567 0.471662 0.36164  0.108539432234
 H1 0.185526 0.323906 0.53690  0.108539432234
 H1 0.36636 0.327818 0.53129  0.108539432234
 H1 0.036121 0.354613 0.49576  0.108539432234
 H1 0.019261 0.474893 0.37701  0.108539432234
 H1 0.712193 0.349326 0.5222  0.108539432234
 H1 0.891635 0.357166 0.51598  0.108539432234
 H1 0.856273 0.496007 0.33821  0.108539432234
 H1 0.677244 0.479849 0.35242  0.108539432234
 H1 0.0 0.618786 0.31857  0.108539432234
 H1 0.953892 0.786077 0.24318  0.108539432234
 H1 0.0 0.584715 0.20562  0.108539432234
 H1 0.939589 0.746449 0.12700  0.108539432234
 H1 0.139099 0.969481 0.36378  0.108539432234
 H1 0.319086 0.971438 0.36157  0.108539432234
 H1 0.314879 0.824051 0.53697  0.108539432234
 H1 0.134013 0.827919 0.53136  0.108539432234
 H1 0.464112 0.854631 0.4957  0.108539432234
 H1 0.480387 0.975124 0.37708  0.108539432234
 H1 0.788093 0.849467 0.52222  0.108539432234
 H1 0.608613 0.857348 0.51601  0.108539432234
 H1 0.643286 0.996211 0.33825  0.108539432234
 H1 0.822387 0.980002 0.35243  0.108539432234
 H1 0.970513 0.119681 0.18058  0.108539432234
 H1 0.045574 0.285601 0.25773  0.108539432234
 H1 0.978994 0.083962 0.29376  0.108539432234
 H1 0.059678 0.245563 0.37292  0.108539432234
 H1 0.860265 0.470835 0.13657  0.108539432234
 H1 0.680287 0.472935 0.13837  0.108539432234
 H1 0.685843 0.324039 0.96312  0.108539432234
 H1 0.866683 0.327754 0.96919  0.108539432234
 H1 0.536182 0.355348 0.00386  0.108539432234
 H1 0.519254 0.474592 0.12339  0.108539432234
 H1 0.211698 0.348966 0.978  0.108539432234
 H1 0.391214 0.356955 0.98408  0.108539432234
 H1 0.356525 0.495887 0.16225  0.108539432234
 H1 0.177462 0.479404 0.14833  0.108539432234
 H1 0.970587 0.381232 0.68142  0.108539432234
 H1 0.046105 0.213938 0.75680  0.108539432234
 H1 0.979343 0.415301 0.79437  0.108539432234
 H1 0.060407 0.253565 0.87299  0.108539432234
 H1 0.860907 0.030537 0.63621  0.108539432234
 H1 0.68092 0.028582 0.63842  0.108539432234
 H1 0.685123 0.175962 0.46302  0.108539432234
 H1 0.865989 0.172094 0.46862  0.108539432234
 H1 0.535892 0.145382 0.50424  0.108539432234
 H1 0.519616 0.024903 0.62291  0.108539432234
 H1 0.211913 0.150545 0.47776  0.108539432234
 H1 0.391393 0.142666 0.48398  0.108539432234
 H1 0.356716 0.003819 0.66174  0.108539432234
 H1 0.177615 0.020026 0.64756  0.108539432234
 H1 0.0 0.880336 0.81941  0.108539432234
 H1 0.954431 0.714417 0.74226  0.108539432234
 H1 0.0 0.916055 0.70622  0.108539432234
 H1 0.940325 0.754455 0.62706  0.108539432234
 H1 0.139738 0.529181 0.86341  0.108539432234
 H1 0.319717 0.527081 0.86161  0.108539432234
 H1 0.314159 0.675976 0.03687  0.108539432234
 H1 0.133319 0.672262 0.03079  0.108539432234
 H1 0.463821 0.644666 0.99613  0.108539432234
 H1 0.480749 0.525428 0.87659  0.108539432234
 H1 0.788305 0.651049 0.02189  0.108539432234
 H1 0.608789 0.64306 0.01590  0.108539432234
 H1 0.643478 0.504133 0.83773  0.108539432234
 H1 0.82254 0.520615 0.8516  0.108539432234
 C1 0.508087 0.249026 0.86509  0.681258717949
 C2 0.496953 0.309954 0.80945  -0.165343282051
 C2 0.518696 0.284747 0.75034  -0.165343282051
 C2 0.507994 0.346034 0.69770  -0.165343282051
 C2 0.530396 0.322671 0.63831  -0.165343282051
 C1 0.516316 0.386724 0.58485  0.681258717949
 C3 0.318523 0.060394 0.90105  0.169421217949
 C2 0.217987 0.059748 0.90049  -0.165343282051
 C4 0.166394 0.101005 0.95008  0.139133717949
 C2 0.221996 0.142347 0.99761  -0.165343282051
 C3 0.322437 0.14003 0.994  0.169421217949
 C2 0.061304 0.104776 0.95574  -0.165343282051
 C2 0.995614 0.065278 0.91714  -0.165343282051
 C3 0.747351 0.119693 0.98168  0.169421217949
 C2 0.847574 0.114806 0.97776  -0.165343282051
 C4 0.890897 0.072899 0.92522  0.139133717949
 C2 0.827718 0.037638 0.87934  -0.165343282051
 C3 0.728052 0.046316 0.88663  0.169421217949
 C1 0.491988 0.750958 0.63418  0.681258717949
 C2 0.503146 0.810709 0.69054  -0.165343282051
 C2 0.480871 0.784728 0.74934  -0.165343282051
 C2 0.491675 0.845359 0.80245  -0.165343282051
 C2 0.46903 0.822094 0.86175  -0.165343282051
 C1 0.48361 0.886401 0.91521  0.681258717949
 C3 0.681359 0.561181 0.5984  0.169421217949
 C2 0.781888 0.560745 0.59929  -0.165343282051
 C4 0.83354 0.60167 0.54977  0.139133717949
 C2 0.778002 0.642629 0.50210  -0.165343282051
 C3 0.677566 0.640124 0.50487  0.169421217949
 C2 0.938621 0.605423 0.5442  -0.165343282051
 C2 0.00436 0.565653 0.58270  -0.165343282051
 C3 0.252301 0.619486 0.51790  0.169421217949
 C2 0.152107 0.614771 0.52198  -0.165343282051
 C4 0.109048 0.573167 0.57455  0.139133717949
 C2 0.172441 0.538042 0.62032  -0.165343282051
 C3 0.272064 0.546523 0.61287  0.169421217949
 C1 0.491915 0.750992 0.13490  0.681258717949
 C2 0.503049 0.690065 0.19053  -0.165343282051
 C2 0.481307 0.715273 0.24964  -0.165343282051
 C2 0.492008 0.653985 0.30228  -0.165343282051
 C2 0.469608 0.677348 0.36168  -0.165343282051
 C1 0.483688 0.613294 0.41514  0.681258717949
 C3 0.68148 0.939619 0.09894  0.169421217949
 C2 0.782016 0.940264 0.09950  -0.165343282051
 C4 0.833609 0.899008 0.04990  0.139133717949
 C2 0.778007 0.857667 0.00237  -0.165343282051
 C3 0.677567 0.859986 0.00539  0.169421217949
 C2 0.938699 0.895236 0.04424  -0.165343282051
 C2 0.004389 0.934734 0.08285  -0.165343282051
 C3 0.252653 0.880322 0.01830  0.169421217949
 C2 0.152429 0.885207 0.02223  -0.165343282051
 C4 0.109107 0.927113 0.07477  0.139133717949
 C2 0.172285 0.962375 0.1206  -0.165343282051
 C3 0.271952 0.953699 0.11335  0.169421217949
 C1 0.508017 0.249058 0.36581  0.681258717949
 C2 0.496863 0.189306 0.3094  -0.165343282051
 C2 0.519136 0.215287 0.25064  -0.165343282051
 C2 0.508333 0.154656 0.19753  -0.165343282051
 C2 0.530975 0.177922 0.13823  -0.165343282051
 C1 0.516395 0.113615 0.08477  0.681258717949
 C3 0.318644 0.438834 0.40151  0.169421217949
 C2 0.218115 0.43927 0.40070  -0.165343282051
 C4 0.166463 0.398346 0.4502  0.139133717949
 C2 0.222002 0.357387 0.49788  -0.165343282051
 C3 0.322437 0.359892 0.49511  0.169421217949
 C2 0.061382 0.394593 0.45571  -0.165343282051
 C2 0.995643 0.434366 0.4172  -0.165343282051
 C3 0.7477 0.380528 0.48208  0.169421217949
 C2 0.847895 0.385243 0.47801  -0.165343282051
 C4 0.890955 0.426853 0.42544  0.139133717949
 C2 0.827563 0.461982 0.37967  -0.165343282051
 C3 0.72794 0.4535 0.38711  0.169421217949
 C1 0.991932 0.749055 0.36583  0.681258717949
 C2 0.0 0.689221 0.30949  -0.165343282051
 C2 0.980869 0.715331 0.2506  -0.165343282051
 C2 0.991599 0.65465 0.19756  -0.165343282051
 C2 0.969068 0.678026 0.1382  -0.165343282051
 C1 0.983571 0.613603 0.08482  0.681258717949
 C3 0.181175 0.938629 0.40146  0.169421217949
 C2 0.281701 0.939131 0.40066  -0.165343282051
 C4 0.333558 0.898351 0.4502  0.139133717949
 C2 0.278228 0.85745 0.49792  -0.165343282051
 C3 0.177778 0.859914 0.49515  0.169421217949
 C2 0.438662 0.89466 0.45572  -0.165343282051
 C2 0.504217 0.934524 0.41732  -0.165343282051
 C3 0.752429 0.880673 0.48209  0.169421217949
 C2 0.652214 0.885406 0.47803  -0.165343282051
 C4 0.608943 0.927024 0.42547  0.139133717949
 C2 0.672162 0.96216 0.37970  -0.165343282051
 C3 0.771825 0.95366 0.38713  0.169421217949
 C1 0.008063 0.250701 0.1348  0.681258717949
 C2 0.996842 0.189882 0.19046  -0.165343282051
 C2 0.018707 0.215013 0.24957  -0.165343282051
 C2 0.007909 0.153808 0.3022  -0.165343282051
 C2 0.03036 0.177113 0.36162  -0.165343282051
 C1 0.016198 0.113184 0.41511  0.681258717949
 C3 0.818479 0.439622 0.09885  0.169421217949
 C2 0.717942 0.440195 0.09942  -0.165343282051
 C4 0.666456 0.398961 0.04980  0.139133717949
 C2 0.722169 0.357732 0.00224  -0.165343282051
 C3 0.822603 0.360095 0.00526  0.169421217949
 C2 0.561375 0.395129 0.04414  -0.165343282051
 C2 0.495578 0.434439 0.08283  -0.165343282051
 C3 0.247396 0.380224 0.01825  0.169421217949
 C2 0.347611 0.385096 0.0221  -0.165343282051
 C4 0.390877 0.426797 0.07477  0.139133717949
 C2 0.32766 0.461839 0.12074  -0.165343282051
 C3 0.228011 0.453186 0.11345  0.169421217949
 C1 0.008072 0.250962 0.63416  0.681258717949
 C2 0.997018 0.310796 0.690  -0.165343282051
 C2 0.01913 0.284684 0.74932  -0.165343282051
 C2 0.008402 0.345365 0.80242  -0.165343282051
 C2 0.03093 0.321989 0.86174  -0.165343282051
 C1 0.016429 0.386413 0.91516  0.681258717949
 C3 0.81883 0.061388 0.59853  0.169421217949
 C2 0.718304 0.060887 0.59933  -0.165343282051
 C4 0.666446 0.101666 0.54976  0.139133717949
 C2 0.721774 0.142565 0.50206  -0.165343282051
 C3 0.822224 0.140101 0.50483  0.169421217949
 C2 0.561342 0.105357 0.54426  -0.165343282051
 C2 0.495787 0.065497 0.5826  -0.165343282051
 C3 0.247576 0.119341 0.51789  0.169421217949
 C2 0.347791 0.11461 0.5219  -0.165343282051
 C4 0.391061 0.072997 0.57452  0.139133717949
 C2 0.32784 0.037866 0.62029  -0.165343282051
 C3 0.228177 0.046364 0.61286  0.169421217949
 C1 0.991943 0.749316 0.86518  0.681258717949
 C2 0.0 0.810134 0.80952  -0.165343282051
 C2 0.981299 0.785005 0.75042  -0.165343282051
 C2 0.992098 0.846209 0.69776  -0.165343282051
 C2 0.969644 0.822905 0.63836  -0.165343282051
 C1 0.983805 0.886834 0.58487  0.681258717949
 C3 0.181524 0.560394 0.90113  0.169421217949
 C2 0.282061 0.559821 0.90057  -0.165343282051
 C4 0.333547 0.601054 0.95018  0.139133717949
 C2 0.277834 0.642283 0.9977  -0.165343282051
 C3 0.1774 0.63992 0.99472  0.169421217949
 C2 0.438628 0.604887 0.95584  -0.165343282051
 C2 0.504425 0.565579 0.91715  -0.165343282051
 C3 0.752607 0.619792 0.98173  0.169421217949
 C2 0.652392 0.61492 0.97782  -0.165343282051
 C4 0.609126 0.57322 0.9252  0.139133717949
 C2 0.672343 0.538179 0.87925  -0.165343282051
 C3 0.771991 0.546832 0.88653  0.169421217949
 N1 0.371182 0.099131 0.94753  -0.324711282051
 N1 0.687236 0.08668 0.93708  -0.324711282051
 N1 0.628768 0.599391 0.5518  -0.324711282051
 N1 0.312635 0.586582 0.5623  -0.324711282051
 N1 0.628822 0.900885 0.05246  -0.324711282051
 N1 0.312768 0.913335 0.06290  -0.324711282051
 N1 0.371235 0.400624 0.44817  -0.324711282051
 N1 0.687367 0.413437 0.43760  -0.324711282051
 N1 0.128777 0.900495 0.44815  -0.324711282051
 N1 0.812598 0.913611 0.43762  -0.324711282051
 N1 0.871237 0.400975 0.05235  -0.324711282051
 N1 0.187245 0.413023 0.06294  -0.324711282051
 N1 0.871227 0.09952 0.55183  -0.324711282051
 N1 0.187405 0.086409 0.56237  -0.324711282051
 N1 0.128766 0.599042 0.94763  -0.324711282051
 N1 0.812758 0.586994 0.9370  -0.324711282051
 O1 0.52541 0.161702 0.85596  -0.606441282051
 O2 0.500026 0.286068 0.91820  -0.609586282051
 O1 0.475611 0.464841 0.5947  -0.606441282051
 O1 0.545795 0.355779 0.53211  -0.606441282051
 O1 0.474517 0.663572 0.64250  -0.606441282051
 O2 0.500124 0.789076 0.58154  -0.609586282051
 O1 0.524417 0.964215 0.90491  -0.606441282051
 O1 0.454475 0.856125 0.96809  -0.606441282051
 O1 0.474594 0.838317 0.14402  -0.606441282051
 O2 0.499977 0.713951 0.08178  -0.609586282051
 O1 0.52439 0.535176 0.40521  -0.606441282051
 O1 0.454207 0.644238 0.46788  -0.606441282051
 O1 0.525487 0.336445 0.3574  -0.606441282051
 O2 0.499881 0.210941 0.41844  -0.609586282051
 O1 0.475586 0.035802 0.09507  -0.606441282051
 O1 0.545528 0.143892 0.03189  -0.606441282051
 O1 0.974528 0.8365 0.35748  -0.606441282051
 O2 0.0 0.710953 0.41848  -0.609586282051
 O1 0.024295 0.535645 0.09521  -0.606441282051
 O1 0.954464 0.643905 0.03191  -0.606441282051
 O1 0.025504 0.337955 0.14393  -0.606441282051
 O2 0.0 0.213632 0.08170  -0.609586282051
 O1 0.975451 0.035201 0.40522  -0.606441282051
 O1 0.045655 0.144129 0.46785  -0.606441282051
 O1 0.025474 0.163516 0.6425  -0.606441282051
 O2 0.999909 0.289064 0.5815  -0.609586282051
 O1 0.975709 0.464372 0.90477  -0.606441282051
 O1 0.04554 0.356113 0.96807  -0.606441282051
 O1 0.974499 0.662062 0.85606  -0.606441282051
 O2 0.0 0.786384 0.91828  -0.609586282051
 O1 0.024554 0.964816 0.59476  -0.606441282051
 O1 0.95435 0.855887 0.53214  -0.606441282051
