#======================================================================

# CRYSTAL DATA

#----------------------------------------------------------------------

data_VESTA_phase_1


_pd_phase_name                         MOF
_cell_length_a                         13.54400
_cell_length_b                         14.80100
_cell_length_c                         21.59900
_cell_angle_alpha                      89.49300
_cell_angle_beta                       89.90400
_cell_angle_gamma                      90.08700
_symmetry_space_group_name_H-M         "P 1"
_symmetry_Int_Tables_number            1

loop_
_symmetry_equiv_pos_as_xyz
   "x, y, z"

loop_
   _atom_site_label
   _atom_site_fract_x
   _atom_site_fract_y
   _atom_site_fract_z
 _atom_site_charge
 Zn1 0.50017 0.394514 0.56548  0.89685650641
 Zn1 0.499726 0.893971 0.93348  0.89685650641
 Zn1 0.499869 0.605535 0.43447  0.89685650641
 Zn1 0.50031 0.106033 0.06648  0.89685650641
 Zn1 0.999732 0.606044 0.06649  0.89685650641
 Zn1 0.000349 0.105539 0.43446  0.89685650641
 Zn1 0.000306 0.393964 0.93349  0.89685650641
 Zn1 0.999683 0.894464 0.5655  0.89685650641
 H1 0.658766 0.477626 0.64870  0.105424095696
 H1 0.836664 0.522314 0.64285  0.105424095696
 H1 0.85864 0.361529 0.47709  0.105424095696
 H1 0.679877 0.329245 0.48831  0.105424095696
 H1 0.992535 0.518368 0.58837  0.105424095696
 H1 0.319087 0.469759 0.63434  0.105424095696
 H1 0.139802 0.493822 0.61555  0.105424095696
 H1 0.166512 0.322917 0.45561  0.105424095696
 H1 0.346504 0.307404 0.48080  0.105424095696
 H1 0.006485 0.372873 0.48756  0.105424095696
 H1 0.489678 0.118324 0.68674  0.105424095696
 H1 0.508935 0.288686 0.76658  0.105424095696
 H1 0.499769 0.081688 0.79921  0.105424095696
 H1 0.516111 0.250004 0.88164  0.105424095696
 H1 0.340802 0.980554 0.8504  0.105424095696
 H1 0.163449 0.025979 0.85709  0.105424095696
 H1 0.141838 0.861323 0.02305  0.105424095696
 H1 0.320178 0.828397 0.01105  0.105424095696
 H1 0.007694 0.020054 0.9115  0.105424095696
 H1 0.681933 0.971745 0.86451  0.105424095696
 H1 0.86086 0.996205 0.8841  0.105424095696
 H1 0.832548 0.821905 0.04438  0.105424095696
 H1 0.652979 0.806052 0.01829  0.105424095696
 H1 0.993157 0.872377 0.01259  0.105424095696
 H1 0.507833 0.623024 0.81480  0.105424095696
 H1 0.490905 0.790918 0.73035  0.105424095696
 H1 0.499565 0.582975 0.70329  0.105424095696
 H1 0.48401 0.748676 0.61641  0.105424095696
 H1 0.341261 0.522346 0.35128  0.105424095696
 H1 0.163367 0.47767 0.35713  0.105424095696
 H1 0.141392 0.638508 0.52286  0.105424095696
 H1 0.320153 0.670792 0.51164  0.105424095696
 H1 0.007487 0.481649 0.4116  0.105424095696
 H1 0.68095 0.530311 0.36563  0.105424095696
 H1 0.860229 0.506239 0.38441  0.105424095696
 H1 0.833514 0.677086 0.54438  0.105424095696
 H1 0.653525 0.692612 0.51919  0.105424095696
 H1 0.99355 0.627145 0.51242  0.105424095696
 H1 0.510389 0.881984 0.31319  0.105424095696
 H1 0.491088 0.711481 0.2335  0.105424095696
 H1 0.500249 0.918415 0.20066  0.105424095696
 H1 0.483899 0.74999 0.11834  0.105424095696
 H1 0.659209 0.019452 0.14951  0.105424095696
 H1 0.836566 0.97404 0.14288  0.105424095696
 H1 0.858192 0.138699 0.97692  0.105424095696
 H1 0.679846 0.171611 0.98891  0.105424095696
 H1 0.99233 0.979973 0.08840  0.105424095696
 H1 0.318113 0.028268 0.1354  0.105424095696
 H1 0.139181 0.003818 0.1158  0.105424095696
 H1 0.167485 0.178107 0.95559  0.105424095696
 H1 0.347059 0.19395 0.98167  0.105424095696
 H1 0.006876 0.127648 0.98739  0.105424095696
 H1 0.492202 0.376982 0.18515  0.105424095696
 H1 0.509092 0.209112 0.26962  0.105424095696
 H1 0.500458 0.417065 0.29664  0.105424095696
 H1 0.515985 0.251379 0.38354  0.105424095696
 H1 0.840047 0.51906 0.14955  0.105424095696
 H1 0.662565 0.473726 0.14287  0.105424095696
 H1 0.642507 0.638696 0.97705  0.105424095696
 H1 0.820859 0.671651 0.98914  0.105424095696
 H1 0.507111 0.479821 0.08838  0.105424095696
 H1 0.181231 0.528419 0.13547  0.105424095696
 H1 0.360186 0.50388 0.11593  0.105424095696
 H1 0.33353 0.67809 0.95560  0.105424095696
 H1 0.153794 0.693892 0.98157  0.105424095696
 H1 0.493709 0.62766 0.9874  0.105424095696
 H1 0.0 0.877033 0.18513  0.105424095696
 H1 0.99086 0.709115 0.26964  0.105424095696
 H1 0.99947 0.917096 0.29663  0.105424095696
 H1 0.98396 0.75138 0.38358  0.105424095696
 H1 0.159486 0.022288 0.35134  0.105424095696
 H1 0.337192 0.977685 0.35728  0.105424095696
 H1 0.358601 0.13856 0.52299  0.105424095696
 H1 0.18004 0.170845 0.51167  0.105424095696
 H1 0.492851 0.982103 0.41161  0.105424095696
 H1 0.819551 0.030447 0.36568  0.105424095696
 H1 0.640065 0.006546 0.38448  0.105424095696
 H1 0.666717 0.177318 0.54447  0.105424095696
 H1 0.84691 0.192726 0.51923  0.105424095696
 H1 0.506638 0.127158 0.51271  0.105424095696
 H1 0.989728 0.382148 0.31328  0.105424095696
 H1 0.008822 0.211653 0.23359  0.105424095696
 H1 0.999629 0.418527 0.20066  0.105424095696
 H1 0.015545 0.25003 0.11838  0.105424095696
 H1 0.15998 0.480952 0.85043  0.105424095696
 H1 0.337463 0.526288 0.85711  0.105424095696
 H1 0.35753 0.361317 0.0229  0.105424095696
 H1 0.179177 0.328361 0.01084  0.105424095696
 H1 0.492919 0.520194 0.91159  0.105424095696
 H1 0.818805 0.471588 0.86451  0.105424095696
 H1 0.639849 0.496132 0.88404  0.105424095696
 H1 0.6665 0.321927 0.04438  0.105424095696
 H1 0.846236 0.306122 0.01841  0.105424095696
 H1 0.506324 0.372355 0.01250  0.105424095696
 H1 0.992389 0.122973 0.81485  0.105424095696
 H1 0.00914 0.290892 0.73034  0.105424095696
 H1 0.000547 0.082909 0.70335  0.105424095696
 H1 0.016025 0.248626 0.61640  0.105424095696
 H1 0.840579 0.977738 0.64864  0.105424095696
 H1 0.662882 0.022373 0.6427  0.105424095696
 H1 0.641392 0.861505 0.4770  0.105424095696
 H1 0.819947 0.829184 0.48831  0.105424095696
 H1 0.507194 0.017961 0.58842  0.105424095696
 H1 0.180441 0.969526 0.63433  0.105424095696
 H1 0.359931 0.993463 0.61556  0.105424095696
 H1 0.333342 0.822788 0.45551  0.105424095696
 H1 0.153147 0.807334 0.48073  0.105424095696
 H1 0.493394 0.872929 0.48730  0.105424095696
 H1 0.0 0.617849 0.68669  0.105424095696
 H1 0.991191 0.788344 0.76638  0.105424095696
 H1 0.0 0.581471 0.79932  0.105424095696
 H1 0.984453 0.749974 0.88160  0.105424095696
 C1 0.706268 0.453674 0.61156  0.17887150641
 C2 0.805512 0.477481 0.60812  -0.18917099359
 C3 0.863435 0.447957 0.5583  0.12755650641
 C2 0.818217 0.389454 0.51621  -0.18917099359
 C1 0.718231 0.370293 0.52220  0.17887150641
 C4 0.962647 0.489018 0.54585  -0.0631134935897
 C1 0.282094 0.437947 0.59539  0.17887150641
 C2 0.181661 0.450666 0.58448  -0.18917099359
 C3 0.138081 0.412256 0.53217  0.12755650641
 C2 0.198019 0.356495 0.49575  -0.18917099359
 C1 0.297426 0.347557 0.50943  0.17887150641
 C4 0.037813 0.434415 0.50749  -0.0631134935897
 C5 0.495193 0.252839 0.6435  0.69115650641
 C2 0.495491 0.190089 0.69773  -0.18917099359
 C2 0.503338 0.216304 0.75733  -0.18917099359
 C2 0.504592 0.154047 0.80899  -0.18917099359
 C2 0.511102 0.178883 0.86896  -0.18917099359
 C5 0.510322 0.112876 0.92137  0.69115650641
 C1 0.293551 0.955937 0.8878  0.17887150641
 C2 0.194553 0.980165 0.89173  -0.18917099359
 C3 0.136799 0.949514 0.94170  0.12755650641
 C2 0.182088 0.890016 0.98374  -0.18917099359
 C1 0.281823 0.870447 0.97730  0.17887150641
 C4 0.03759 0.990067 0.95422  -0.0631134935897
 C1 0.718464 0.939274 0.90373  0.17887150641
 C2 0.818749 0.952258 0.91513  -0.18917099359
 C3 0.861872 0.912834 0.96767  0.12755650641
 C2 0.801518 0.856201 0.00400  -0.18917099359
 C1 0.702334 0.84699 0.98978  0.17887150641
 C4 0.962131 0.934472 0.99260  -0.0631134935897
 C5 0.502659 0.75876 0.85442  0.69115650641
 C2 0.502739 0.694455 0.80190  -0.18917099359
 C2 0.495903 0.718844 0.74158  -0.18917099359
 C2 0.494921 0.654991 0.69159  -0.18917099359
 C2 0.488849 0.677971 0.63096  -0.18917099359
 C5 0.489714 0.610612 0.58018  0.69115650641
 C1 0.293761 0.546321 0.38841  0.17887150641
 C2 0.194518 0.522516 0.39186  -0.18917099359
 C3 0.136593 0.552058 0.44164  0.12755650641
 C2 0.181814 0.610574 0.4837  -0.18917099359
 C1 0.2818 0.629736 0.47775  0.17887150641
 C4 0.03738 0.511002 0.45412  -0.0631134935897
 C1 0.717939 0.56211 0.40458  0.17887150641
 C2 0.818371 0.549384 0.41549  -0.18917099359
 C3 0.861948 0.587775 0.46781  0.12755650641
 C2 0.802009 0.643522 0.50423  -0.18917099359
 C1 0.702602 0.652468 0.49055  0.17887150641
 C4 0.962217 0.565607 0.49248  -0.0631134935897
 C5 0.504885 0.747461 0.35647  0.69115650641
 C2 0.504566 0.810195 0.30226  -0.18917099359
 C2 0.496692 0.783884 0.24268  -0.18917099359
 C2 0.495421 0.846034 0.19096  -0.18917099359
 C2 0.488916 0.82112 0.13100  -0.18917099359
 C5 0.489692 0.887107 0.07857  0.69115650641
 C1 0.706465 0.044072 0.11211  0.17887150641
 C2 0.805465 0.019852 0.10824  -0.18917099359
 C3 0.863226 0.050508 0.05828  0.12755650641
 C2 0.817938 0.110003 0.01623  -0.18917099359
 C1 0.718199 0.129565 0.02267  0.17887150641
 C4 0.962438 0.009958 0.04576  -0.0631134935897
 C1 0.281579 0.060738 0.09624  0.17887150641
 C2 0.181292 0.047761 0.08485  -0.18917099359
 C3 0.138164 0.087184 0.0323  0.12755650641
 C2 0.198517 0.143812 0.99598  -0.18917099359
 C1 0.297704 0.153017 0.01019  0.17887150641
 C4 0.037901 0.065552 0.0073  -0.0631134935897
 C5 0.49737 0.241237 0.14554  0.69115650641
 C2 0.497291 0.305555 0.19805  -0.18917099359
 C2 0.504105 0.281183 0.25838  -0.18917099359
 C2 0.505089 0.345052 0.30836  -0.18917099359
 C2 0.511158 0.322084 0.36899  -0.18917099359
 C5 0.510308 0.389436 0.41978  0.69115650641
 C1 0.793091 0.543793 0.11218  0.17887150641
 C2 0.694017 0.519617 0.10828  -0.18917099359
 C3 0.636652 0.550365 0.05833  0.12755650641
 C2 0.682391 0.609949 0.01636  -0.18917099359
 C1 0.782152 0.629507 0.02284  0.17887150641
 C4 0.537357 0.509868 0.04577  -0.0631134935897
 C1 0.218113 0.560831 0.09624  0.17887150641
 C2 0.318417 0.547805 0.08487  -0.18917099359
 C3 0.361992 0.587206 0.0323  0.12755650641
 C2 0.302089 0.643808 0.99597  -0.18917099359
 C1 0.202814 0.653009 0.01014  0.17887150641
 C4 0.462315 0.56555 0.00743  -0.0631134935897
 C5 0.0 0.741264 0.14554  0.69115650641
 C2 0.0 0.80559 0.1980  -0.18917099359
 C2 0.995818 0.7812 0.25839  -0.18917099359
 C2 0.994846 0.845072 0.30837  -0.18917099359
 C2 0.988808 0.822095 0.36901  -0.18917099359
 C5 0.989704 0.889455 0.41979  0.69115650641
 C1 0.2068 0.046306 0.38850  0.17887150641
 C2 0.30595 0.022516 0.39199  -0.18917099359
 C3 0.363674 0.052098 0.44179  0.12755650641
 C2 0.318343 0.110586 0.48387  -0.18917099359
 C1 0.218454 0.129753 0.4778  0.17887150641
 C4 0.462784 0.011181 0.45420  -0.0631134935897
 C1 0.782487 0.062277 0.40463  0.17887150641
 C2 0.681953 0.049651 0.41555  -0.18917099359
 C3 0.638296 0.088037 0.46789  0.12755650641
 C2 0.698272 0.143753 0.50431  -0.18917099359
 C1 0.797782 0.152627 0.49062  0.17887150641
 C4 0.537902 0.065737 0.4926  -0.0631134935897
 C5 0.995383 0.24762 0.35655  0.69115650641
 C2 0.995557 0.310373 0.30234  -0.18917099359
 C2 0.003241 0.284049 0.2427  -0.18917099359
 C2 0.00435 0.346141 0.19099  -0.18917099359
 C2 0.010659 0.321164 0.13103  -0.18917099359
 C5 0.009889 0.387112 0.07857  0.69115650641
 C1 0.206939 0.456219 0.88780  0.17887150641
 C2 0.306012 0.480396 0.89170  -0.18917099359
 C3 0.36338 0.449649 0.94164  0.12755650641
 C2 0.317644 0.390064 0.98362  -0.18917099359
 C1 0.217883 0.370505 0.97714  0.17887150641
 C4 0.462674 0.490147 0.9542  -0.0631134935897
 C1 0.781922 0.439179 0.90373  0.17887150641
 C2 0.681617 0.452207 0.91510  -0.18917099359
 C3 0.638041 0.412808 0.96764  0.12755650641
 C2 0.697943 0.356207 0.00401  -0.18917099359
 C1 0.797217 0.347005 0.98984  0.17887150641
 C4 0.537717 0.434465 0.99254  -0.0631134935897
 C5 0.997442 0.258743 0.85444  0.69115650641
 C2 0.997424 0.194417 0.8019  -0.18917099359
 C2 0.004191 0.218806 0.74159  -0.18917099359
 C2 0.005167 0.154934 0.69161  -0.18917099359
 C2 0.011203 0.177911 0.63097  -0.18917099359
 C5 0.010317 0.110551 0.58019  0.69115650641
 C1 0.793249 0.953728 0.61149  0.17887150641
 C2 0.694104 0.977537 0.60800  -0.18917099359
 C3 0.636358 0.947965 0.55822  0.12755650641
 C2 0.681665 0.889471 0.5161  -0.18917099359
 C1 0.781553 0.870285 0.52217  0.17887150641
 C4 0.537247 0.988894 0.54582  -0.0631134935897
 C1 0.21752 0.937727 0.59537  0.17887150641
 C2 0.318055 0.950376 0.58446  -0.18917099359
 C3 0.361729 0.912027 0.53212  0.12755650641
 C2 0.301771 0.856323 0.49568  -0.18917099359
 C1 0.20226 0.847425 0.50936  0.17887150641
 C4 0.462125 0.934343 0.50740  -0.0631134935897
 C5 0.0 0.752378 0.64342  0.69115650641
 C2 0.0 0.689623 0.69763  -0.18917099359
 C2 0.996778 0.715947 0.75723  -0.18917099359
 C2 0.995672 0.653858 0.80899  -0.18917099359
 C2 0.989359 0.678839 0.86895  -0.18917099359
 C5 0.990141 0.612895 0.9214  0.69115650641
 N1 0.66158 0.403261 0.56804  -0.32657349359
 N1 0.34049 0.38972 0.5575  -0.32657349359
 N1 0.338233 0.904033 0.93109  -0.32657349359
 N1 0.659735 0.889775 0.94131  -0.32657349359
 N1 0.338452 0.596754 0.43192  -0.32657349359
 N1 0.65954 0.610325 0.44246  -0.32657349359
 N1 0.661785 0.095974 0.06887  -0.32657349359
 N1 0.340307 0.110232 0.05865  -0.32657349359
 N1 0.838194 0.595805 0.06900  -0.32657349359
 N1 0.159779 0.61028 0.05861  -0.32657349359
 N1 0.161971 0.096784 0.43196  -0.32657349359
 N1 0.840884 0.110417 0.44253  -0.32657349359
 N1 0.161838 0.404206 0.93097  -0.32657349359
 N1 0.840255 0.389731 0.94137  -0.32657349359
 N1 0.838056 0.903241 0.56802  -0.32657349359
 N1 0.159142 0.8896 0.55746  -0.32657349359
 O1 0.499188 0.338462 0.65354  -0.609280160256
 O2 0.491809 0.219105 0.58986  -0.60512349359
 O1 0.511916 0.148367 0.97521  -0.609280160256
 O1 0.508056 0.029333 0.9087  -0.609280160256
 O1 0.500577 0.84414 0.84281  -0.609280160256
 O2 0.504041 0.726464 0.90910  -0.60512349359
 O1 0.488003 0.644724 0.52555  -0.609280160256
 O1 0.492117 0.527344 0.59480  -0.609280160256
 O1 0.500859 0.661843 0.34647  -0.609280160256
 O2 0.508311 0.781149 0.41016  -0.60512349359
 O1 0.488112 0.851609 0.02474  -0.609280160256
 O1 0.491982 0.970653 0.09116  -0.609280160256
 O1 0.499452 0.155861 0.15716  -0.609280160256
 O2 0.495996 0.273526 0.09086  -0.60512349359
 O1 0.512015 0.355311 0.47440  -0.609280160256
 O1 0.50792 0.472709 0.40516  -0.609280160256
 O1 0.000473 0.655884 0.15717  -0.609280160256
 O2 0.0 0.773544 0.09085  -0.60512349359
 O1 0.987992 0.855331 0.47442  -0.609280160256
 O1 0.992121 0.972736 0.40516  -0.609280160256
 O1 0.999672 0.162029 0.34651  -0.609280160256
 O2 0.991769 0.281243 0.41026  -0.60512349359
 O1 0.011421 0.351588 0.0247  -0.609280160256
 O1 0.00777 0.47066 0.0911  -0.609280160256
 O1 0.99956 0.344122 0.84281  -0.609280160256
 O2 0.996002 0.226463 0.90913  -0.60512349359
 O1 0.012037 0.144674 0.52556  -0.609280160256
 O1 0.007916 0.02727 0.59482  -0.609280160256
 O1 0.000358 0.83797 0.65347  -0.609280160256
 O2 0.0 0.718759 0.58972  -0.60512349359
 O1 0.988608 0.648419 0.97523  -0.609280160256
 O1 0.992265 0.529346 0.9088  -0.609280160256
