#======================================================================

# CRYSTAL DATA

#----------------------------------------------------------------------

data_VESTA_phase_1


_pd_phase_name                         MOF
_cell_length_a                         12.19400
_cell_length_b                         12.18200
_cell_length_c                         23.16900
_cell_angle_alpha                      90.00000
_cell_angle_beta                       90.00000
_cell_angle_gamma                      90.00100
_symmetry_space_group_name_H-M         "P 1"
_symmetry_Int_Tables_number            1

loop_
_symmetry_equiv_pos_as_xyz
   "x, y, z"

loop_
   _atom_site_label
   _atom_site_fract_x
   _atom_site_fract_y
   _atom_site_fract_z
 _atom_site_charge
 Cu1 0.0 0.600426 0.  0.874360363636
 Cu1 0.999996 0.399585 0.  0.874360363636
 Cu1 0.399645 0.999995 0.50000  0.874360363636
 Cu1 0.600315 0.0 0.50000  0.874360363636
 H1 0.607525 0.676801 0.79878  0.107310363636
 H1 0.753272 0.676188 0.87317  0.107310363636
 H1 0.39242 0.323201 0.79878  0.107310363636
 H1 0.246674 0.323814 0.87317  0.107310363636
 H1 0.323357 0.60755 0.29865  0.107310363636
 H1 0.32398 0.753283 0.37314  0.107310363636
 H1 0.676608 0.392447 0.29865  0.107310363636
 H1 0.675982 0.246715 0.37314  0.107310363636
 H1 0.392435 0.676798 0.20121  0.107310363636
 H1 0.246689 0.676184 0.12682  0.107310363636
 H1 0.607534 0.323204 0.20121  0.107310363636
 H1 0.75328 0.323822 0.12682  0.107310363636
 H1 0.676601 0.607558 0.70134  0.107310363636
 H1 0.675979 0.753291 0.62686  0.107310363636
 H1 0.323347 0.392444 0.70134  0.107310363636
 H1 0.323972 0.246712 0.62686  0.107310363636
 H1 0.39243 0.323202 0.20121  0.107310363636
 H1 0.246684 0.323817 0.12682  0.107310363636
 H1 0.607534 0.676801 0.20121  0.107310363636
 H1 0.75328 0.676189 0.12682  0.107310363636
 H1 0.6766 0.392449 0.70134  0.107310363636
 H1 0.675977 0.246716 0.62686  0.107310363636
 H1 0.323348 0.607554 0.70134  0.107310363636
 H1 0.323973 0.753286 0.62686  0.107310363636
 H1 0.607521 0.323205 0.79878  0.107310363636
 H1 0.753268 0.323821 0.87317  0.107310363636
 H1 0.392424 0.676798 0.79878  0.107310363636
 H1 0.246678 0.676181 0.87317  0.107310363636
 H1 0.323355 0.392444 0.29865  0.107310363636
 H1 0.323976 0.246712 0.37313  0.107310363636
 H1 0.67661 0.607559 0.29865  0.107310363636
 H1 0.675986 0.753292 0.3731  0.107310363636
 C1 0.639683 0.598818 0.81433  -0.0858446363636
 C1 0.721404 0.599156 0.85625  -0.0858446363636
 C1 0.360262 0.401185 0.81433  -0.0858446363636
 C1 0.278542 0.400846 0.85625  -0.0858446363636
 C1 0.401261 0.639734 0.31421  -0.0858446363636
 C1 0.400925 0.721425 0.35618  -0.0858446363636
 C1 0.598704 0.360265 0.31421  -0.0858446363636
 C1 0.599038 0.278574 0.35618  -0.0858446363636
 C1 0.360276 0.598814 0.18566  -0.0858446363636
 C1 0.278555 0.599152 0.14374  -0.0858446363636
 C1 0.639692 0.401189 0.18566  -0.0858446363636
 C1 0.721413 0.400853 0.14374  -0.0858446363636
 C1 0.598697 0.639738 0.6857  -0.0858446363636
 C1 0.599034 0.72143 0.64381  -0.0858446363636
 C1 0.401251 0.360264 0.68578  -0.0858446363636
 C1 0.400916 0.278572 0.64381  -0.0858446363636
 C1 0.360273 0.401186 0.18566  -0.0858446363636
 C1 0.278552 0.400848 0.14374  -0.0858446363636
 C1 0.639692 0.598818 0.18566  -0.0858446363636
 C1 0.721413 0.599157 0.14374  -0.0858446363636
 C1 0.598696 0.360267 0.6857  -0.0858446363636
 C1 0.599033 0.278575 0.6438  -0.0858446363636
 C1 0.401252 0.639736 0.6857  -0.0858446363636
 C1 0.400917 0.721427 0.64381  -0.0858446363636
 C1 0.639681 0.401189 0.81433  -0.0858446363636
 C1 0.721401 0.400852 0.85625  -0.0858446363636
 C1 0.360265 0.598814 0.81433  -0.0858446363636
 C1 0.278544 0.59915 0.85625  -0.0858446363636
 C1 0.401258 0.360263 0.31421  -0.0858446363636
 C1 0.400921 0.278572 0.35618  -0.0858446363636
 C1 0.598706 0.639738 0.31421  -0.0858446363636
 C1 0.599042 0.72143 0.35618  -0.0858446363636
 C2 0.598313 0.500003 0.79207  -0.0431246363636
 C3 0.850952 0.500004 0.92242  0.661020363636
 C2 0.763434 0.500004 0.87749  -0.0431246363636
 C2 0.401633 0.5 0.79207  -0.0431246363636
 C3 0.148995 0.499997 0.92242  0.661020363636
 C2 0.236513 0.499998 0.87749  -0.0431246363636
 C2 0.499984 0.598398 0.2919  -0.0431246363636
 C3 0.499982 0.850935 0.42241  0.661020363636
 C2 0.499983 0.763439 0.37744  -0.0431246363636
 C2 0.499982 0.401602 0.29191  -0.0431246363636
 C3 0.499978 0.149066 0.42241  0.661020363636
 C2 0.499979 0.236562 0.37744  -0.0431246363636
 C2 0.401643 0.5 0.20792  -0.0431246363636
 C3 0.149005 0.500001 0.07757  0.661020363636
 C2 0.236523 0.5 0.1225  -0.0431246363636
 C2 0.598323 0.500002 0.20792  -0.0431246363636
 C3 0.850961 0.500007 0.07757  0.661020363636
 C2 0.763443 0.500006 0.1225  -0.0431246363636
 C2 0.499974 0.598399 0.70808  -0.0431246363636
 C3 0.499976 0.850935 0.57758  0.661020363636
 C2 0.499976 0.763439 0.6225  -0.0431246363636
 C2 0.499973 0.401603 0.70808  -0.0431246363636
 C3 0.499976 0.149066 0.57758  0.661020363636
 C2 0.499975 0.236563 0.6225  -0.0431246363636
 C4 0.499973 0.500001 0.75008  0.0165003636364
 C4 0.499983 0.5 0.24991  0.0165003636364
 O1 0.885138 0.59358 0.93998  -0.550969636364
 O1 0.11481 0.406421 0.9399  -0.550969636364
 O1 0.406494 0.88511 0.43998  -0.550969636364
 O1 0.593466 0.11489 0.43998  -0.550969636364
 O1 0.114822 0.593577 0.06002  -0.550969636364
 O1 0.885143 0.406431 0.06002  -0.550969636364
 O1 0.593464 0.885115 0.56001  -0.550969636364
 O1 0.406489 0.114886 0.56001  -0.550969636364
 O1 0.114818 0.406425 0.06002  -0.550969636364
 O1 0.885146 0.593583 0.06002  -0.550969636364
 O1 0.593464 0.11489 0.56001  -0.550969636364
 O1 0.406489 0.885112 0.56001  -0.550969636364
 O1 0.885133 0.406428 0.93998  -0.550969636364
 O1 0.114813 0.593573 0.93998  -0.550969636364
 O1 0.406491 0.114886 0.43998  -0.550969636364
 O1 0.593469 0.885116 0.43998  -0.550969636364
