#======================================================================

# CRYSTAL DATA

#----------------------------------------------------------------------

data_VESTA_phase_1


_pd_phase_name                         MOF
_cell_length_a                         13.82800
_cell_length_b                         15.63800
_cell_length_c                         15.64100
_cell_angle_alpha                      90.01800
_cell_angle_beta                       90.00100
_cell_angle_gamma                      89.95700
_symmetry_space_group_name_H-M         "P 1"
_symmetry_Int_Tables_number            1

loop_
_symmetry_equiv_pos_as_xyz
   "x, y, z"

loop_
   _atom_site_label
   _atom_site_fract_x
   _atom_site_fract_y
   _atom_site_fract_z
 _atom_site_charge
 Zn1 0.638398 2e-05 9.1e-0  1.1619534
 Zn1 0.138523 0.50003 0.49989  1.1619534
 Zn1 0.861455 0.499985 0.50007  1.1619534
 Zn1 0.361563 0.99998 0.9999  1.1619534
 H1 0.499972 0.406806 0.59317  0.692310066667
 H1 0.500008 0.593194 0.40678  0.692310066667
 H1 0.999996 0.9069 0.90685  0.692310066667
 H1 1.7e-05 0.093113 0.09312  0.692310066667
 H1 0.344062 0.237256 0.76280  0.692310066667
 H1 0.343966 0.762889 0.23718  0.692310066667
 H1 0.844052 0.737293 0.73717  0.692310066667
 H1 0.84395 0.26286 0.26278  0.692310066667
 H1 0.155926 0.262726 0.26279  0.692310066667
 H1 0.156028 0.737145 0.73720  0.692310066667
 H1 0.655915 0.762754 0.23716  0.692310066667
 H1 0.656012 0.237116 0.76278  0.692310066667
 C1 0.500031 0.162905 0.83706  0.926400066667
 C2 0.500035 0.228986 0.77098  0.545376733333
 C3 0.499993 0.35761 0.64236  -4.1778466
 C1 0.499946 0.837102 0.16289  0.926400066667
 C2 0.499941 0.771017 0.22897  0.545376733333
 C3 0.499986 0.642393 0.35759  -4.1778466
 C1 4.9e-05 0.662923 0.66289  0.926400066667
 C2 5.4e-05 0.72902 0.72898  0.545376733333
 C3 1.6e-05 0.857685 0.85764  -4.1778466
 C1 0.999962 0.33709 0.33708  0.926400066667
 C2 0.999956 0.270993 0.27098  0.545376733333
 C3 0.999996 0.142328 0.14233  -4.1778466
 C3 0.412922 0.261118 0.73888  -4.1778466
 C2 0.412652 0.325721 0.6742  0.545376733333
 C1 0.32073 0.356117 0.64385  0.926400066667
 C3 0.412845 0.738951 0.26107  -4.1778466
 C2 0.412615 0.674312 0.32567  0.545376733333
 C1 0.320722 0.643938 0.35605  0.926400066667
 C3 0.912914 0.761164 0.76108  -4.1778466
 C2 0.912645 0.825779 0.82573  0.545376733333
 C1 0.820706 0.856165 0.85611  0.926400066667
 C3 0.91283 0.238918 0.23888  -4.1778466
 C2 0.912598 0.174259 0.17426  0.545376733333
 C1 0.820686 0.143902 0.14390  0.926400066667
 C3 0.087064 0.238852 0.23888  -4.1778466
 C2 0.087334 0.174236 0.17423  0.545376733333
 C1 0.179273 0.143851 0.14385  0.926400066667
 C3 0.087148 0.761091 0.76109  -4.1778466
 C2 0.087381 0.82575 0.82571  0.545376733333
 C1 0.179294 0.856109 0.85607  0.926400066667
 C3 0.587056 0.738883 0.26107  -4.1778466
 C2 0.587327 0.674286 0.32570  0.545376733333
 C1 0.679249 0.643878 0.35610  0.926400066667
 C3 0.587132 0.26105 0.73888  -4.1778466
 C2 0.587364 0.325695 0.67428  0.545376733333
 C1 0.679257 0.356066 0.64390  0.926400066667
 N1 0.548645 0.072377 0.92779  0.60281215
 N2 0.581077 0.128942 0.87133  0.257795066667
 N1 0.214255 0.423834 0.57605  0.60281215
 N2 0.309048 0.417045 0.58280  0.257795066667
 N2 0.233314 0.326607 0.67345  0.257795066667
 N3 0.166856 0.36873 0.63130  0.4606534
 N1 0.548626 0.927787 0.07241  0.60281215
 N2 0.581015 0.871301 0.12900  0.257795066667
 N1 0.214305 0.576159 0.42374  0.60281215
 N2 0.309092 0.582874 0.41696  0.257795066667
 N2 0.233276 0.673556 0.3265  0.257795066667
 N3 0.166859 0.631428 0.36860  0.4606534
 N1 0.048662 0.57237 0.5721  0.60281215
 N2 0.081093 0.628953 0.62861  0.257795066667
 N1 0.714165 0.923845 0.92390  0.60281215
 N2 0.808965 0.917088 0.91719  0.257795066667
 N2 0.733319 0.826602 0.82647  0.257795066667
 N3 0.666818 0.8687 0.86861  0.4606534
 N1 0.048643 0.427801 0.42759  0.60281215
 N2 0.081029 0.371303 0.37097  0.257795066667
 N1 0.714201 0.076148 0.07624  0.60281215
 N2 0.808995 0.082826 0.08297  0.257795066667
 N2 0.73327 0.173557 0.17350  0.257795066667
 N3 0.666808 0.131443 0.13142  0.4606534
 N1 0.951316 0.427645 0.42783  0.60281215
 N2 0.918885 0.371059 0.37136  0.257795066667
 N1 0.285814 0.076172 0.0760  0.60281215
 N2 0.191014 0.082928 0.08277  0.257795066667
 N2 0.266661 0.173422 0.17348  0.257795066667
 N3 0.333161 0.131322 0.13134  0.4606534
 N1 0.951334 0.572212 0.57237  0.60281215
 N2 0.918948 0.628712 0.62899  0.257795066667
 N1 0.285778 0.923864 0.92372  0.60281215
 N2 0.190984 0.917184 0.91699  0.257795066667
 N2 0.266709 0.826445 0.82648  0.257795066667
 N3 0.333171 0.868562 0.86856  0.4606534
 N1 0.451333 0.927636 0.0721  0.60281215
 N2 0.418901 0.87107 0.12863  0.257795066667
 N1 0.785724 0.576174 0.42391  0.60281215
 N2 0.690931 0.582971 0.41717  0.257795066667
 N2 0.766665 0.673408 0.32652  0.257795066667
 N3 0.833123 0.631297 0.36867  0.4606534
 N1 0.451352 0.072225 0.9275  0.60281215
 N2 0.418963 0.128707 0.8709  0.257795066667
 N1 0.785674 0.423851 0.57622  0.60281215
 N2 0.690886 0.417133 0.58299  0.257795066667
 N2 0.766703 0.326465 0.6734  0.257795066667
 N3 0.83312 0.3686 0.6313  0.4606534
