#======================================================================

# CRYSTAL DATA

#----------------------------------------------------------------------

data_VESTA_phase_1


_pd_phase_name                         MOF
_cell_length_a                         17.67500
_cell_length_b                         17.66100
_cell_length_c                         17.68400
_cell_angle_alpha                      90.65900
_cell_angle_beta                       119.54300
_cell_angle_gamma                      119.71400
_symmetry_space_group_name_H-M         "P 1"
_symmetry_Int_Tables_number            1

loop_
_symmetry_equiv_pos_as_xyz
   "x, y, z"

loop_
   _atom_site_label
   _atom_site_fract_x
   _atom_site_fract_y
   _atom_site_fract_z
 _atom_site_charge
 Zn1 0.03166 0.46871 0.77980  0.850833677686
 Zn1 0.467997 0.247947 0.4369  0.850833677686
 Zn1 0.687889 0.219605 0.75156  0.850833677686
 Zn1 0.811873 0.563415 0.53162  0.850833677686
 Zn1 0.312143 0.780349 0.24843  0.850833677686
 Zn1 0.188156 0.43655 0.46836  0.850833677686
 Zn1 0.968371 0.531243 0.22019  0.850833677686
 Zn1 0.532034 0.752012 0.56302  0.850833677686
 H1 0.86754 0.518572 0.9291  0.110630066575
 H1 0.015427 0.690645 0.01330  0.110630066575
 H1 0.163799 0.761112 0.99513  0.110630066575
 H1 0.210354 0.464379 0.80715  0.110630066575
 H1 0.261445 0.357032 0.82615  0.110630066575
 H1 0.998537 0.176917 0.84791  0.110630066575
 H1 0.956284 0.293674 0.82409  0.110630066575
 H1 0.317322 0.272438 0.91566  0.110630066575
 H1 0.237321 0.214777 0.79344  0.110630066575
 H1 0.632971 0.561914 0.65127  0.110630066575
 H1 0.485225 0.498403 0.67543  0.110630066575
 H1 0.336495 0.331762 0.5972  0.110630066575
 H1 0.289345 0.096615 0.25381  0.110630066575
 H1 0.238794 0.064559 0.09570  0.110630066575
 H1 0.50221 0.349434 0.1791  0.110630066575
 H1 0.543952 0.367812 0.33785  0.110630066575
 H1 0.183555 0.098271 0.95567  0.110630066575
 H1 0.263514 0.055957 0.97794  0.110630066575
 H1 0.58996 0.071237 0.43873  0.110630066575
 H1 0.678186 0.987594 0.50220  0.110630066575
 H1 0.766395 0.00571 0.66838  0.110630066575
 H1 0.656171 0.192249 0.90281  0.110630066575
 H1 0.530897 0.174706 0.93578  0.110630066575
 H1 0.329486 0.153185 0.65201  0.110630066575
 H1 0.469011 0.175589 0.63262  0.110630066575
 H1 0.357204 0.085985 0.90277  0.110630066575
 H1 0.422199 0.208559 0.94526  0.110630066575
 H1 0.91006 0.348363 0.48145  0.110630066575
 H1 0.822338 0.323968 0.30983  0.110630066575
 H1 0.734291 0.402183 0.23972  0.110630066575
 H1 0.844113 0.746908 0.53653  0.110630066575
 H1 0.969846 0.90523 0.64449  0.110630066575
 H1 0.170689 0.821944 0.82362  0.110630066575
 H1 0.030745 0.662986 0.70630  0.110630066575
 H1 0.143614 0.045839 0.72956  0.110630066575
 H1 0.078689 0.023211 0.78707  0.110630066575
 H1 0.410063 0.928715 0.56126  0.110630066575
 H1 0.321858 0.012375 0.49779  0.110630066575
 H1 0.233651 0.994258 0.33161  0.110630066575
 H1 0.343857 0.807704 0.09718  0.110630066575
 H1 0.46914 0.825263 0.06422  0.110630066575
 H1 0.670554 0.846791 0.34799  0.110630066575
 H1 0.531019 0.824369 0.36738  0.110630066575
 H1 0.642831 0.913978 0.09721  0.110630066575
 H1 0.57784 0.791402 0.05475  0.110630066575
 H1 0.089973 0.651599 0.51854  0.110630066575
 H1 0.177688 0.675983 0.6901  0.110630066575
 H1 0.265732 0.597765 0.76027  0.110630066575
 H1 0.155923 0.253064 0.4634  0.110630066575
 H1 0.030196 0.09474 0.35551  0.110630066575
 H1 0.829343 0.178013 0.17637  0.110630066575
 H1 0.969281 0.336973 0.29368  0.110630066575
 H1 0.856424 0.954126 0.27044  0.110630066575
 H1 0.921351 0.976749 0.21293  0.110630066575
 H1 0.132493 0.481381 0.0708  0.110630066575
 H1 0.984606 0.309307 0.98669  0.110630066575
 H1 0.836233 0.238841 0.00486  0.110630066575
 H1 0.789674 0.535572 0.19283  0.110630066575
 H1 0.738588 0.642922 0.17385  0.110630066575
 H1 0.001501 0.823045 0.15210  0.110630066575
 H1 0.043749 0.706285 0.17591  0.110630066575
 H1 0.682716 0.727523 0.08434  0.110630066575
 H1 0.762707 0.785184 0.20656  0.110630066575
 H1 0.367074 0.438048 0.34872  0.110630066575
 H1 0.514815 0.50157 0.32456  0.110630066575
 H1 0.663539 0.668212 0.40271  0.110630066575
 H1 0.710691 0.903347 0.74619  0.110630066575
 H1 0.761246 0.935401 0.90430  0.110630066575
 H1 0.497822 0.650528 0.82083  0.110630066575
 H1 0.456078 0.632153 0.66215  0.110630066575
 H1 0.816486 0.901683 0.04433  0.110630066575
 H1 0.736532 0.944004 0.02206  0.110630066575
 C1 0.860237 0.398634 0.81551  0.604657427686
 C2 0.940259 0.501147 0.86886  0.102666177686
 C3 0.934428 0.552893 0.92336  -0.172413822314
 C3 0.01582 0.647445 0.96922  -0.172413822314
 C3 0.099754 0.687706 0.95933  -0.172413822314
 C2 0.100629 0.631729 0.90384  0.102666177686
 C1 0.186465 0.665681 0.88601  0.604657427686
 C4 0.16538 0.400617 0.81709  0.216124302686
 C3 0.194537 0.339388 0.82860  -0.172413822314
 C5 0.134578 0.257532 0.84045  0.352651177686
 C3 0.047681 0.240244 0.83980  -0.172413822314
 C4 0.024258 0.304855 0.82729  0.216124302686
 C6 0.244868 0.208152 0.85818  0.064688677686
 C1 0.639771 0.455311 0.53845  0.604657427686
 C2 0.559882 0.428766 0.56095  0.102666177686
 C3 0.565944 0.489246 0.61862  -0.172413822314
 C3 0.48461 0.45377 0.6317  -0.172413822314
 C3 0.400485 0.359904 0.58793  -0.172413822314
 C2 0.399388 0.303398 0.53100  0.102666177686
 C1 0.313371 0.199654 0.47902  0.604657427686
 C4 0.334573 0.151571 0.23525  0.216124302686
 C3 0.305719 0.133955 0.14505  -0.172413822314
 C5 0.365981 0.205817 0.12343  0.352651177686
 C3 0.452848 0.292108 0.19313  -0.172413822314
 C4 0.475975 0.302993 0.28097  0.216124302686
 C6 0.256008 0.113265 0.96389  0.064688677686
 C1 0.582661 0.184014 0.5448  0.604657427686
 C2 0.632036 0.131003 0.5714  0.102666177686
 C3 0.629798 0.07692 0.51119  -0.172413822314
 C3 0.678708 0.031401 0.54663  -0.172413822314
 C3 0.728591 0.041229 0.6402  -0.172413822314
 C2 0.727562 0.096264 0.69650  0.102666177686
 C1 0.779078 0.114047 0.79994  0.604657427686
 C4 0.582828 0.182733 0.84831  0.216124302686
 C3 0.510684 0.172039 0.86645  -0.172413822314
 C5 0.417452 0.160737 0.79517  0.352651177686
 C3 0.400637 0.16101 0.70890  -0.172413822314
 C4 0.477141 0.172693 0.69745  0.216124302686
 C6 0.350755 0.14367 0.88807  0.064688677686
 C1 0.916956 0.461678 0.60128  0.604657427686
 C2 0.867824 0.43899 0.49902  0.102666177686
 C3 0.870277 0.38108 0.44730  -0.172413822314
 C3 0.821649 0.367818 0.35299  -0.172413822314
 C3 0.771854 0.411678 0.31294  -0.172413822314
 C2 0.772652 0.468872 0.36888  0.102666177686
 C1 0.721196 0.52093 0.33513  0.604657427686
 C4 0.917446 0.765561 0.60023  0.216124302686
 C3 0.98982 0.855885 0.66183  -0.172413822314
 C5 0.083035 0.87761 0.74361  0.352651177686
 C3 0.099576 0.807881 0.76041  -0.172413822314
 C4 0.022835 0.719905 0.69548  0.216124302686
 C6 0.150077 0.037435 0.793  0.064688677686
 C7 0.250442 0.125631 0.87595  -0.047666322314
 C1 0.417348 0.815924 0.45510  0.604657427686
 C2 0.36799 0.868949 0.42856  0.102666177686
 C3 0.37021 0.923018 0.48879  -0.172413822314
 C3 0.321336 0.968567 0.45336  -0.172413822314
 C3 0.271436 0.958724 0.35975  -0.172413822314
 C2 0.272492 0.90371 0.30349  0.102666177686
 C1 0.220959 0.88591 0.20004  0.604657427686
 C4 0.417203 0.817225 0.15168  0.216124302686
 C3 0.489351 0.827928 0.13355  -0.172413822314
 C5 0.582587 0.839239 0.20483  0.352651177686
 C3 0.599401 0.838962 0.29110  -0.172413822314
 C4 0.522891 0.827269 0.30254  0.216124302686
 C6 0.649284 0.856298 0.11193  0.064688677686
 C1 0.083082 0.53829 0.39871  0.604657427686
 C2 0.132203 0.560968 0.50097  0.102666177686
 C3 0.129767 0.61889 0.55270  -0.172413822314
 C3 0.178371 0.632131 0.64700  -0.172413822314
 C3 0.228186 0.588286 0.68705  -0.172413822314
 C2 0.227378 0.531086 0.63110  0.102666177686
 C1 0.278842 0.479034 0.66485  0.604657427686
 C4 0.082589 0.234407 0.39976  0.216124302686
 C3 0.0 0.144082 0.33817  -0.172413822314
 C5 0.917003 0.122353 0.25639  0.352651177686
 C3 0.900457 0.19208 0.23958  -0.172413822314
 C4 0.977194 0.280057 0.30451  0.216124302686
 C6 0.849963 0.962527 0.20641  0.064688677686
 C1 0.139797 0.601319 0.18448  0.604657427686
 C2 0.05978 0.498804 0.13114  0.102666177686
 C3 0.065604 0.447059 0.07663  -0.172413822314
 C3 0.984215 0.352506 0.03078  -0.172413822314
 C3 0.900272 0.312249 0.04066  -0.172413822314
 C2 0.899393 0.36823 0.09614  0.102666177686
 C1 0.813559 0.334275 0.11397  0.604657427686
 C4 0.834651 0.599337 0.1829  0.216124302686
 C3 0.805497 0.660568 0.17140  -0.172413822314
 C5 0.865459 0.742428 0.15956  0.352651177686
 C3 0.952356 0.759717 0.16021  -0.172413822314
 C4 0.975776 0.695104 0.17271  0.216124302686
 C6 0.755168 0.791809 0.14182  0.064688677686
 C1 0.360269 0.544645 0.46155  0.604657427686
 C2 0.440154 0.571195 0.43904  0.102666177686
 C3 0.434104 0.510715 0.38139  -0.172413822314
 C3 0.515427 0.546199 0.36824  -0.172413822314
 C3 0.599557 0.640064 0.41207  -0.172413822314
 C2 0.600642 0.696569 0.46899  0.102666177686
 C1 0.686663 0.80031 0.5209  0.604657427686
 C4 0.665463 0.84839 0.76475  0.216124302686
 C3 0.694317 0.866006 0.85495  -0.172413822314
 C5 0.634055 0.794144 0.87657  0.352651177686
 C3 0.547185 0.707855 0.80687  -0.172413822314
 C4 0.524057 0.696971 0.71903  0.216124302686
 C6 0.744033 0.886693 0.03611  0.064688677686
 C7 0.749597 0.87433 0.1240  -0.047666322314
 N1 0.082065 0.384729 0.81641  -0.330300072314
 N1 0.021993 0.540985 0.86085  -0.330300072314
 N1 0.417891 0.234237 0.30277  -0.330300072314
 N1 0.477963 0.338963 0.51892  -0.330300072314
 N1 0.567472 0.183116 0.76567  -0.330300072314
 N1 0.679568 0.138899 0.66096  -0.330300072314
 N1 0.932554 0.698018 0.61571  -0.330300072314
 N1 0.820355 0.481112 0.45939  -0.330300072314
 N1 0.432557 0.81684 0.23432  -0.330300072314
 N1 0.320483 0.861074 0.33903  -0.330300072314
 N1 0.067476 0.301946 0.38428  -0.330300072314
 N1 0.179673 0.518846 0.54060  -0.330300072314
 N1 0.917965 0.615227 0.18358  -0.330300072314
 N1 0.978036 0.458971 0.13913  -0.330300072314
 N1 0.582143 0.765726 0.69723  -0.330300072314
 N1 0.522065 0.661001 0.4810  -0.330300072314
 O1 0.875492 0.362043 0.76775  -0.567898822314
 O2 0.782864 0.35548 0.82375  -0.614496322314
 O2 0.172351 0.602373 0.83261  -0.614496322314
 O1 0.260786 0.749773 0.92238  -0.567898822314
 O3 0.153336 0.191372 0.85219  -0.257961322314
 O1 0.624429 0.392126 0.48668  -0.567898822314
 O2 0.717132 0.540997 0.57255  -0.614496322314
 O2 0.327273 0.160247 0.42973  -0.614496322314
 O1 0.239155 0.161739 0.48883  -0.567898822314
 O3 0.347546 0.198819 0.03872  -0.257961322314
 O1 0.593588 0.231601 0.60784  -0.567898822314
 O2 0.531406 0.175733 0.45947  -0.614496322314
 O2 0.768519 0.166875 0.8391  -0.614496322314
 O1 0.827271 0.078229 0.8378  -0.567898822314
 O3 0.340192 0.149862 0.80271  -0.257961322314
 O1 0.905811 0.513612 0.63782  -0.567898822314
 O2 0.96831 0.427554 0.64431  -0.614496322314
 O2 0.731422 0.570479 0.3983  -0.614496322314
 O1 0.673363 0.510928 0.25124  -0.567898822314
 O3 0.160523 0.962437 0.81010  -0.257961322314
 O1 0.40643 0.768344 0.39214  -0.567898822314
 O2 0.468619 0.824219 0.54052  -0.614496322314
 O2 0.23151 0.833075 0.16085  -0.614496322314
 O1 0.172772 0.921733 0.16213  -0.567898822314
 O3 0.659855 0.850126 0.19730  -0.257961322314
 O1 0.09423 0.486358 0.36217  -0.567898822314
 O2 0.031722 0.572409 0.35568  -0.614496322314
 O2 0.26861 0.429482 0.60160  -0.614496322314
 O1 0.326659 0.489019 0.74874  -0.567898822314
 O3 0.839517 0.037525 0.18990  -0.257961322314
 O1 0.124535 0.637913 0.23223  -0.567898822314
 O2 0.217159 0.644475 0.17623  -0.614496322314
 O2 0.827689 0.397577 0.16740  -0.614496322314
 O1 0.73925 0.25018 0.07761  -0.567898822314
 O3 0.846706 0.808591 0.14782  -0.257961322314
 O1 0.375613 0.607828 0.51332  -0.567898822314
 O2 0.282896 0.458962 0.42743  -0.614496322314
 O2 0.672758 0.839715 0.57027  -0.614496322314
 O1 0.760877 0.838231 0.51116  -0.567898822314
 O3 0.652493 0.801141 0.96128  -0.257961322314
