#======================================================================

# CRYSTAL DATA

#----------------------------------------------------------------------

data_VESTA_phase_1


_pd_phase_name                         MOF
_cell_length_a                         13.68700
_cell_length_b                         17.85200
_cell_length_c                         21.78700
_cell_angle_alpha                      89.91000
_cell_angle_beta                       89.97700
_cell_angle_gamma                      89.99800
_symmetry_space_group_name_H-M         "P 1"
_symmetry_Int_Tables_number            1

loop_
_symmetry_equiv_pos_as_xyz
   "x, y, z"

loop_
   _atom_site_label
   _atom_site_fract_x
   _atom_site_fract_y
   _atom_site_fract_z
 _atom_site_charge
 Cd1 0.697275 0.873563 0.14849  1.21955266667
 Cd1 0.675966 0.058918 0.23460  1.21955266667
 Cd1 0.851848 0.201135 0.21502  1.21955266667
 Cd1 0.302707 0.128552 0.6493  1.21955266667
 Cd1 0.323034 0.943378 0.73579  1.21955266667
 Cd1 0.147682 0.801823 0.71464  1.21955266667
 Cd1 0.80282 0.373486 0.14920  1.21955266667
 Cd1 0.823429 0.55883 0.23526  1.21955266667
 Cd1 0.647845 0.700905 0.2149  1.21955266667
 Cd1 0.196853 0.628768 0.64912  1.21955266667
 Cd1 0.176532 0.443407 0.73548  1.21955266667
 Cd1 0.352107 0.301455 0.71472  1.21955266667
 H1 0.043377 0.928965 0.17374  0.112446833333
 H1 0.976324 0.914044 0.10443  0.112446833333
 H1 0.009322 0.06627 0.16684  0.112446833333
 H1 0.956906 0.054201 0.09322  0.112446833333
 H1 0.342694 0.060578 0.15622  0.112446833333
 H1 0.401651 0.064526 0.08267  0.112446833333
 H1 0.462165 0.933263 0.09720  0.112446833333
 H1 0.401584 0.929691 0.17006  0.112446833333
 H1 0.261923 0.968335 0.91478  0.112446833333
 H1 0.130939 0.971197 0.91558  0.112446833333
 H1 0.2577 0.830641 0.93215  0.112446833333
 H1 0.126448 0.832352 0.92558  0.112446833333
 H1 0.383933 0.644575 0.08443  0.112446833333
 H1 0.327145 0.703007 0.14025  0.112446833333
 H1 0.439009 0.758053 0.02565  0.112446833333
 H1 0.380069 0.816823 0.07901  0.112446833333
 H1 0.954066 0.777204 0.03620  0.112446833333
 H1 0.019901 0.800793 0.10397  0.112446833333
 H1 0.982229 0.673866 0.14902  0.112446833333
 H1 0.916864 0.650089 0.08179  0.112446833333
 H1 0.098747 0.583338 0.90992  0.112446833333
 H1 0.228689 0.581381 0.90827  0.112446833333
 H1 0.103222 0.708237 0.85404  0.112446833333
 H1 0.231808 0.706159 0.85568  0.112446833333
 H1 0.95673 0.074892 0.67169  0.112446833333
 H1 0.023095 0.087174 0.60169  0.112446833333
 H1 0.989527 0.937172 0.6679  0.112446833333
 H1 0.041974 0.946684 0.5940  0.112446833333
 H1 0.657661 0.940106 0.6570  0.112446833333
 H1 0.596914 0.937098 0.58413  0.112446833333
 H1 0.538086 0.068722 0.59979  0.112446833333
 H1 0.599702 0.070841 0.67228  0.112446833333
 H1 0.732531 0.03474 0.41521  0.112446833333
 H1 0.863362 0.029386 0.41474  0.112446833333
 H1 0.740781 0.172096 0.43136  0.112446833333
 H1 0.872026 0.168363 0.4253  0.112446833333
 H1 0.616365 0.356693 0.58561  0.112446833333
 H1 0.673366 0.297603 0.64101  0.112446833333
 H1 0.561846 0.243896 0.52606  0.112446833333
 H1 0.62067 0.184473 0.57912  0.112446833333
 H1 0.047008 0.225748 0.53643  0.112446833333
 H1 0.981354 0.200803 0.60405  0.112446833333
 H1 0.01674 0.32769 0.64967  0.112446833333
 H1 0.082123 0.352717 0.58267  0.112446833333
 H1 0.900598 0.418802 0.4102  0.112446833333
 H1 0.770632 0.420419 0.40888  0.112446833333
 H1 0.89633 0.294011 0.35447  0.112446833333
 H1 0.767704 0.296099 0.35607  0.112446833333
 H1 0.456806 0.428165 0.17282  0.112446833333
 H1 0.523473 0.414527 0.10316  0.112446833333
 H1 0.490266 0.565793 0.16712  0.112446833333
 H1 0.54297 0.554754 0.09348  0.112446833333
 H1 0.157699 0.561431 0.15666  0.112446833333
 H1 0.098122 0.565295 0.08336  0.112446833333
 H1 0.03755 0.43403 0.09832  0.112446833333
 H1 0.098539 0.430661 0.1709  0.112446833333
 H1 0.235411 0.467753 0.91506  0.112446833333
 H1 0.366274 0.472694 0.91510  0.112446833333
 H1 0.243324 0.330211 0.93216  0.112446833333
 H1 0.374438 0.333806 0.92532  0.112446833333
 H1 0.118025 0.145418 0.08722  0.112446833333
 H1 0.174871 0.206636 0.14090  0.112446833333
 H1 0.06026 0.25592 0.02569  0.112446833333
 H1 0.118577 0.317448 0.07716  0.112446833333
 H1 0.547632 0.275517 0.03428  0.112446833333
 H1 0.482252 0.301823 0.10154  0.112446833333
 H1 0.51683 0.175173 0.14869  0.112446833333
 H1 0.582974 0.149501 0.08225  0.112446833333
 H1 0.398259 0.082058 0.90971  0.112446833333
 H1 0.26827 0.081842 0.90853  0.112446833333
 H1 0.395923 0.207439 0.85426  0.112446833333
 H1 0.267301 0.206445 0.85588  0.112446833333
 H1 0.542888 0.574402 0.67205  0.112446833333
 H1 0.476672 0.587631 0.60215  0.112446833333
 H1 0.509806 0.436694 0.66706  0.112446833333
 H1 0.457124 0.447401 0.5933  0.112446833333
 H1 0.842092 0.440565 0.6571  0.112446833333
 H1 0.902505 0.437009 0.58406  0.112446833333
 H1 0.961298 0.568898 0.59904  0.112446833333
 H1 0.900441 0.571166 0.67183  0.112446833333
 H1 0.766427 0.53448 0.4150  0.112446833333
 H1 0.63554 0.52988 0.41485  0.112446833333
 H1 0.759437 0.671886 0.43150  0.112446833333
 H1 0.628121 0.668822 0.42565  0.112446833333
 H1 0.883411 0.858045 0.58477  0.112446833333
 H1 0.826349 0.799645 0.64066  0.112446833333
 H1 0.93782 0.744483 0.52609  0.112446833333
 H1 0.879015 0.685777 0.57973  0.112446833333
 H1 0.453249 0.725999 0.53603  0.112446833333
 H1 0.518958 0.701209 0.60364  0.112446833333
 H1 0.482915 0.827849 0.6493  0.112446833333
 H1 0.417706 0.85294 0.58236  0.112446833333
 H1 0.599138 0.91892 0.40949  0.112446833333
 H1 0.729118 0.920744 0.40801  0.112446833333
 H1 0.603661 0.794161 0.35370  0.112446833333
 H1 0.732256 0.796351 0.35523  0.112446833333
 C1 0.194149 0.990716 0.12381  0.613989333333
 C1 0.285163 0.975718 0.0261  0.613989333333
 C1 0.109146 0.945136 0.03083  0.613989333333
 C2 0.0 0.953252 0.12935  0.0876043333333
 C3 0.968285 0.02695 0.13811  -0.391582333333
 C4 0.867792 0.013489 0.1652  0.783027666667
 C2 0.366535 0.027877 0.11651  0.0876043333333
 C3 0.437916 0.966553 0.13650  -0.391582333333
 C4 0.525502 0.0 0.16765  0.783027666667
 C2 0.195855 0.941764 0.93262  0.0876043333333
 C3 0.194616 0.859901 0.91202  -0.391582333333
 C4 0.205777 0.858312 0.84247  0.783027666667
 C1 0.258342 0.660824 0.9992  0.613989333333
 C1 0.080965 0.685851 0.99195  0.613989333333
 C1 0.175064 0.733963 0.08066  0.613989333333
 C2 0.348497 0.698709 0.09200  0.0876043333333
 C3 0.417235 0.762526 0.07411  -0.391582333333
 C4 0.510791 0.766286 0.1122  0.783027666667
 C2 0.997075 0.754784 0.07432  0.0876043333333
 C3 0.938512 0.697331 0.11133  -0.391582333333
 C4 0.844752 0.72929 0.13853  0.783027666667
 C2 0.164814 0.617815 0.90923  0.0876043333333
 C3 0.166367 0.670335 0.85407  -0.391582333333
 C4 0.169613 0.62939 0.79299  0.783027666667
 C1 0.805259 0.011189 0.62361  0.613989333333
 C1 0.712391 0.025558 0.52663  0.613989333333
 C1 0.888266 0.056991 0.52991  0.613989333333
 C2 0.976638 0.049017 0.62783  0.0876043333333
 C3 0.0308 0.975428 0.63826  -0.391582333333
 C4 0.131483 0.989254 0.66504  0.783027666667
 C2 0.633035 0.973288 0.61776  0.0876043333333
 C3 0.562542 0.034685 0.63867  -0.391582333333
 C4 0.475053 0.000411 0.67007  0.783027666667
 C2 0.799826 0.060058 0.43235  0.0876043333333
 C3 0.803341 0.141863 0.41159  -0.391582333333
 C4 0.793386 0.143683 0.34198  0.783027666667
 C1 0.741773 0.341218 0.50014  0.613989333333
 C1 0.918856 0.31522 0.49186  0.613989333333
 C1 0.825557 0.268072 0.58142  0.613989333333
 C2 0.65196 0.302533 0.59281  0.0876043333333
 C3 0.583492 0.238814 0.57451  -0.391582333333
 C4 0.489816 0.234717 0.61255  0.783027666667
 C2 0.0 0.247339 0.57463  0.0876043333333
 C3 0.061045 0.304975 0.61197  -0.391582333333
 C4 0.155136 0.273626 0.63922  0.783027666667
 C2 0.834678 0.384151 0.40972  0.0876043333333
 C3 0.833176 0.331904 0.3545  -0.391582333333
 C4 0.830082 0.373363 0.29360  0.783027666667
 C1 0.305686 0.490933 0.12381  0.613989333333
 C1 0.213982 0.476632 0.02638  0.613989333333
 C1 0.389777 0.44535 0.03049  0.613989333333
 C2 0.477052 0.453251 0.12867  0.0876043333333
 C3 0.531487 0.52688 0.13811  -0.391582333333
 C4 0.631946 0.513326 0.16524  0.783027666667
 C2 0.133464 0.528666 0.11709  0.0876043333333
 C3 0.062101 0.467489 0.13744  -0.391582333333
 C4 0.974775 0.502028 0.16878  0.783027666667
 C2 0.302404 0.44223 0.93253  0.0876043333333
 C3 0.305591 0.360418 0.9119  -0.391582333333
 C4 0.294217 0.358545 0.84238  0.783027666667
 C1 0.241413 0.160374 0.  0.613989333333
 C1 0.418542 0.185829 0.99100  0.613989333333
 C1 0.325753 0.235659 0.0796  0.613989333333
 C2 0.152669 0.200176 0.09297  0.0876043333333
 C3 0.082487 0.262556 0.07390  -0.391582333333
 C4 0.989146 0.266633 0.11234  0.783027666667
 C2 0.504133 0.254694 0.07280  0.0876043333333
 C3 0.561458 0.19756 0.11094  -0.391582333333
 C4 0.655181 0.229388 0.1383  0.783027666667
 C2 0.332973 0.117421 0.90930  0.0876043333333
 C3 0.332241 0.17008 0.85423  -0.391582333333
 C4 0.328498 0.129253 0.79313  0.783027666667
 C1 0.694374 0.511299 0.62364  0.613989333333
 C1 0.787057 0.52559 0.52655  0.613989333333
 C1 0.611248 0.557079 0.53001  0.613989333333
 C2 0.522983 0.549081 0.62799  0.0876043333333
 C3 0.468575 0.475442 0.63783  -0.391582333333
 C4 0.368087 0.489196 0.66495  0.783027666667
 C2 0.866605 0.473463 0.6176  0.0876043333333
 C3 0.937273 0.534961 0.63810  -0.391582333333
 C4 0.025131 0.500693 0.6690  0.783027666667
 C2 0.699449 0.56014 0.43237  0.0876043333333
 C3 0.696583 0.642038 0.41175  -0.391582333333
 C4 0.706497 0.643826 0.3421  0.783027666667
 C1 0.758064 0.841963 0.49958  0.613989333333
 C1 0.581122 0.815604 0.49137  0.613989333333
 C1 0.674421 0.768932 0.5810  0.613989333333
 C2 0.847799 0.803984 0.59242  0.0876043333333
 C3 0.916244 0.740032 0.57460  -0.391582333333
 C4 0.00996 0.736308 0.61259  0.783027666667
 C2 0.49657 0.747689 0.57423  0.0876043333333
 C3 0.438801 0.805154 0.6115  -0.391582333333
 C4 0.344676 0.773696 0.63877  0.783027666667
 C2 0.665167 0.884374 0.40890  0.0876043333333
 C3 0.666746 0.832121 0.35368  -0.391582333333
 C4 0.669791 0.873244 0.29253  0.783027666667
 N1 0.1127 0.962498 0.09333  -0.327967333333
 N1 0.278475 0.996915 0.08771  -0.327967333333
 N1 0.197941 0.951426 0.99961  -0.327967333333
 N1 0.257233 0.698439 0.05561  -0.327967333333
 N1 0.087819 0.72265 0.04858  -0.327967333333
 N1 0.169189 0.658709 0.96814  -0.327967333333
 N1 0.886266 0.039111 0.59239  -0.327967333333
 N1 0.720455 0.004298 0.58811  -0.327967333333
 N1 0.79894 0.050322 0.49937  -0.327967333333
 N1 0.743159 0.303306 0.55638  -0.327967333333
 N1 0.912541 0.279041 0.54888  -0.327967333333
 N1 0.830616 0.343068 0.46862  -0.327967333333
 N1 0.386955 0.462959 0.09295  -0.327967333333
 N1 0.221173 0.497531 0.08794  -0.327967333333
 N1 0.300836 0.451951 0.9995  -0.327967333333
 N1 0.243326 0.199276 0.05591  -0.327967333333
 N1 0.412821 0.222866 0.04762  -0.327967333333
 N1 0.329833 0.158332 0.96821  -0.327967333333
 N1 0.613361 0.539328 0.59251  -0.327967333333
 N1 0.779097 0.504384 0.58805  -0.327967333333
 N1 0.700473 0.55028 0.49937  -0.327967333333
 N1 0.756661 0.804351 0.55596  -0.327967333333
 N1 0.587484 0.779606 0.54846  -0.327967333333
 N1 0.669344 0.843357 0.46790  -0.327967333333
 O1 0.191991 0.0 0.17787  -0.500344
 O1 0.362173 0.979799 0.99767  -0.500344
 O1 0.034124 0.924952 0.00519  -0.500344
 O2 0.829189 0.950336 0.15741  -0.626178583333
 O3 0.828151 0.068323 0.19461  -0.714162333333
 O2 0.512619 0.047477 0.21074  -0.626178583333
 O3 0.612705 0.984352 0.14952  -0.714162333333
 O2 0.287346 0.880953 0.82136  -0.626178583333
 O2 0.132782 0.835196 0.8115  -0.626178583333
 O1 0.332881 0.631537 0.97916  -0.500344
 O1 0.003321 0.678401 0.96501  -0.500344
 O1 0.179521 0.771207 0.12777  -0.500344
 O2 0.521005 0.716663 0.15430  -0.626178583333
 O2 0.5698 0.818471 0.09889  -0.626178583333
 O2 0.179797 0.559712 0.79192  -0.626178583333
 O3 0.162847 0.671617 0.74420  -0.714162333333
 O2 0.803977 0.690327 0.18126  -0.626178583333
 O2 0.812777 0.790406 0.11723  -0.626178583333
 O1 0.808163 0.993494 0.6778  -0.500344
 O1 0.634825 0.021254 0.49878  -0.500344
 O1 0.962454 0.077987 0.50369  -0.500344
 O2 0.170386 0.052088 0.65586  -0.626178583333
 O3 0.17078 0.935069 0.69551  -0.714162333333
 O2 0.487651 0.952771 0.71243  -0.626178583333
 O3 0.387718 0.018212 0.6528  -0.714162333333
 O2 0.712071 0.12178 0.32012  -0.626178583333
 O2 0.867299 0.166489 0.31167  -0.626178583333
 O1 0.667233 0.370925 0.48039  -0.500344
 O1 0.996005 0.32182 0.46414  -0.500344
 O1 0.821329 0.231261 0.62886  -0.500344
 O2 0.478396 0.285119 0.65368  -0.626178583333
 O2 0.431953 0.1816 0.59992  -0.626178583333
 O2 0.820168 0.443097 0.29288  -0.626178583333
 O3 0.836841 0.331483 0.24474  -0.714162333333
 O2 0.195842 0.313007 0.68164  -0.626178583333
 O2 0.18752 0.212539 0.61835  -0.626178583333
 O1 0.308105 0.508858 0.17795  -0.500344
 O1 0.136893 0.481213 0.99804  -0.500344
 O1 0.464398 0.424742 0.004  -0.500344
 O2 0.670626 0.450176 0.15736  -0.626178583333
 O3 0.671502 0.568116 0.19469  -0.714162333333
 O2 0.987601 0.549845 0.21088  -0.626178583333
 O3 0.887361 0.484123 0.15184  -0.714162333333
 O2 0.21268 0.381185 0.82127  -0.626178583333
 O2 0.367121 0.33512 0.81149  -0.626178583333
 O1 0.166684 0.13023 0.98135  -0.500344
 O1 0.495478 0.178411 0.96319  -0.500344
 O1 0.321533 0.274693 0.12578  -0.500344
 O2 0.978962 0.217177 0.15450  -0.626178583333
 O2 0.930108 0.318793 0.0989  -0.626178583333
 O2 0.316597 0.059732 0.79198  -0.626178583333
 O3 0.336767 0.171405 0.74439  -0.714162333333
 O2 0.695695 0.190367 0.18115  -0.626178583333
 O2 0.687339 0.290523 0.11723  -0.626178583333
 O1 0.691577 0.493563 0.67785  -0.500344
 O1 0.864583 0.521301 0.49864  -0.500344
 O1 0.537065 0.578069 0.50382  -0.500344
 O2 0.329196 0.552096 0.65606  -0.626178583333
 O3 0.328942 0.434917 0.69543  -0.714162333333
 O2 0.012727 0.453456 0.71185  -0.626178583333
 O3 0.112208 0.518085 0.65109  -0.714162333333
 O2 0.78796 0.622039 0.32035  -0.626178583333
 O2 0.632588 0.666359 0.31176  -0.626178583333
 O1 0.832591 0.871796 0.47993  -0.500344
 O1 0.503868 0.822055 0.46380  -0.500344
 O1 0.678696 0.732244 0.62855  -0.500344
 O2 0.021269 0.786943 0.65354  -0.626178583333
 O2 0.067998 0.683243 0.60009  -0.626178583333
 O2 0.679903 0.942929 0.29122  -0.626178583333
 O3 0.662858 0.83109 0.24384  -0.714162333333
 O2 0.30364 0.813332 0.68089  -0.626178583333
 O2 0.312637 0.712366 0.61817  -0.626178583333
