#======================================================================

# CRYSTAL DATA

#----------------------------------------------------------------------

data_VESTA_phase_1


_pd_phase_name                         MOF
_cell_length_a                         22.67200
_cell_length_b                         22.18900
_cell_length_c                         29.05400
_cell_angle_alpha                      90.09600
_cell_angle_beta                       90.04100
_cell_angle_gamma                      89.32400
_symmetry_space_group_name_H-M         "P 1"
_symmetry_Int_Tables_number            1

loop_
_symmetry_equiv_pos_as_xyz
   "x, y, z"

loop_
   _atom_site_label
   _atom_site_fract_x
   _atom_site_fract_y
   _atom_site_fract_z
 _atom_site_charge
 Zn1 0.307392 0.830878 0.67780  1.22685546154
 Zn1 0.807399 0.830878 0.67780  1.22685546154
 Zn2 0.37766 0.89592 0.7666  1.10215546154
 Zn2 0.877667 0.89592 0.7666  1.10215546154
 Zn2 0.242434 0.877383 0.76006  1.10215546154
 Zn2 0.74244 0.877383 0.76006  1.10215546154
 Zn3 0.345183 0.96369 0.68573  1.08943546154
 Zn3 0.845189 0.96369 0.68573  1.08943546154
 Zn1 0.192546 0.168067 0.1778  1.22685546154
 Zn1 0.692553 0.168067 0.1778  1.22685546154
 Zn2 0.122367 0.101919 0.2662  1.10215546154
 Zn2 0.622373 0.101919 0.2662  1.10215546154
 Zn2 0.257606 0.122571 0.25995  1.10215546154
 Zn2 0.757612 0.122571 0.25995  1.10215546154
 Zn3 0.155251 0.034189 0.18574  1.08943546154
 Zn3 0.655258 0.034189 0.18574  1.08943546154
 Zn1 0.44226 0.328599 0.67781  1.22685546154
 Zn1 0.942267 0.328599 0.67781  1.22685546154
 Zn2 0.369993 0.39566 0.76593  1.10215546154
 Zn2 0.869999 0.39566 0.76593  1.10215546154
 Zn2 0.005362 0.374662 0.76012  1.10215546154
 Zn2 0.505368 0.374662 0.76012  1.10215546154
 Zn3 0.404662 0.463072 0.68436  1.08943546154
 Zn3 0.904669 0.463072 0.68436  1.08943546154
 Zn1 0.05523 0.669707 0.17756  1.22685546154
 Zn1 0.555237 0.669707 0.17756  1.22685546154
 Zn2 0.127718 0.604172 0.26592  1.10215546154
 Zn2 0.627724 0.604172 0.26592  1.10215546154
 Zn2 0.492348 0.624978 0.25999  1.10215546154
 Zn2 0.992355 0.624978 0.25999  1.10215546154
 Zn3 0.095077 0.536801 0.18424  1.08943546154
 Zn3 0.595083 0.536801 0.18424  1.08943546154
 H1 0.429544 0.981868 0.560  0.111228318681
 H1 0.929549 0.981869 0.56019  0.111228318681
 H1 0.481054 0.972096 0.4848  0.111228318681
 H1 0.981058 0.972098 0.48480  0.111228318681
 H1 0.398476 0.800324 0.46285  0.111228318681
 H1 0.898482 0.800324 0.46285  0.111228318681
 H1 0.347245 0.810679 0.53858  0.111228318681
 H1 0.847252 0.810678 0.53858  0.111228318681
 H1 0.053786 0.962697 0.34162  0.111228318681
 H1 0.553794 0.962696 0.34162  0.111228318681
 H1 0.082118 0.859768 0.21751  0.111228318681
 H1 0.582124 0.859768 0.21751  0.111228318681
 H1 0.489339 0.780759 0.33096  0.111228318681
 H1 0.989345 0.78076 0.33096  0.111228318681
 H1 0.139479 0.705759 0.38284  0.111228318681
 H1 0.639485 0.705759 0.38284  0.111228318681
 H1 0.136018 0.757127 0.45923  0.111228318681
 H1 0.636024 0.757127 0.45923  0.111228318681
 H1 0.458791 0.693721 0.47921  0.111228318681
 H1 0.958797 0.693721 0.47921  0.111228318681
 H1 0.462527 0.64344 0.40214  0.111228318681
 H1 0.962534 0.64344 0.40214  0.111228318681
 H1 0.149789 0.812211 0.60244  0.111228318681
 H1 0.649795 0.812211 0.60244  0.111228318681
 H1 0.060309 0.870087 0.725  0.111228318681
 H1 0.560315 0.870087 0.725  0.111228318681
 H1 0.460234 0.797434 0.61312  0.111228318681
 H1 0.96024 0.797434 0.61312  0.111228318681
 H1 0.070069 0.016187 0.0597  0.111228318681
 H1 0.570073 0.016189 0.05977  0.111228318681
 H1 0.018473 0.026794 0.98446  0.111228318681
 H1 0.518477 0.026795 0.98446  0.111228318681
 H1 0.100887 0.198874 0.9641  0.111228318681
 H1 0.600898 0.198871 0.96410  0.111228318681
 H1 0.152276 0.187638 0.03970  0.111228318681
 H1 0.652286 0.187636 0.03970  0.111228318681
 H1 0.447185 0.036121 0.84176  0.111228318681
 H1 0.947191 0.036121 0.84176  0.111228318681
 H1 0.417684 0.138307 0.717  0.111228318681
 H1 0.91769 0.138307 0.717  0.111228318681
 H1 0.009291 0.218928 0.83138  0.111228318681
 H1 0.509299 0.218928 0.83138  0.111228318681
 H1 0.358286 0.294559 0.88326  0.111228318681
 H1 0.858291 0.294565 0.88326  0.111228318681
 H1 0.362286 0.243389 0.95958  0.111228318681
 H1 0.862291 0.243399 0.95958  0.111228318681
 H1 0.039871 0.306349 0.97885  0.111228318681
 H1 0.539878 0.306343 0.97885  0.111228318681
 H1 0.035556 0.356465 0.90189  0.111228318681
 H1 0.535562 0.356463 0.90189  0.111228318681
 H1 0.349863 0.188228 0.10254  0.111228318681
 H1 0.849869 0.188233 0.10254  0.111228318681
 H1 0.440046 0.128832 0.2249  0.111228318681
 H1 0.940053 0.128832 0.2249  0.111228318681
 H1 0.039586 0.202019 0.11262  0.111228318681
 H1 0.539593 0.202014 0.11262  0.111228318681
 H1 0.320456 0.481593 0.55833  0.111228318681
 H1 0.820463 0.481593 0.55833  0.111228318681
 H1 0.269129 0.471724 0.48293  0.111228318681
 H1 0.769136 0.471725 0.48293  0.111228318681
 H1 0.351155 0.297259 0.46321  0.111228318681
 H1 0.85116 0.297258 0.46321  0.111228318681
 H1 0.402183 0.307708 0.5389  0.111228318681
 H1 0.902188 0.307708 0.53894  0.111228318681
 H1 0.197451 0.463234 0.34003  0.111228318681
 H1 0.697457 0.463234 0.34003  0.111228318681
 H1 0.167627 0.359992 0.21658  0.111228318681
 H1 0.667634 0.359992 0.21658  0.111228318681
 H1 0.259071 0.278634 0.33075  0.111228318681
 H1 0.759077 0.278634 0.33075  0.111228318681
 H1 0.109982 0.204719 0.38304  0.111228318681
 H1 0.60999 0.204722 0.3830  0.111228318681
 H1 0.113636 0.256638 0.45917  0.111228318681
 H1 0.613644 0.256642 0.45917  0.111228318681
 H1 0.292048 0.191795 0.47830  0.111228318681
 H1 0.792054 0.191793 0.47830  0.111228318681
 H1 0.288098 0.141008 0.40149  0.111228318681
 H1 0.788103 0.141006 0.40149  0.111228318681
 H1 0.099693 0.310114 0.60229  0.111228318681
 H1 0.5997 0.310114 0.60229  0.111228318681
 H1 0.187998 0.368481 0.72533  0.111228318681
 H1 0.688004 0.368481 0.72533  0.111228318681
 H1 0.289787 0.297232 0.6124  0.111228318681
 H1 0.789794 0.297232 0.6124  0.111228318681
 H1 0.179769 0.518612 0.05821  0.111228318681
 H1 0.679773 0.518611 0.05821  0.111228318681
 H1 0.231069 0.5288 0.98292  0.111228318681
 H1 0.731073 0.528799 0.98292  0.111228318681
 H1 0.148002 0.702754 0.96350  0.111228318681
 H1 0.648008 0.702754 0.96350  0.111228318681
 H1 0.096939 0.691945 0.03909  0.111228318681
 H1 0.596945 0.691945 0.03909  0.111228318681
 H1 0.301771 0.537027 0.840  0.111228318681
 H1 0.801777 0.537026 0.84019  0.111228318681
 H1 0.331995 0.6398 0.71690  0.111228318681
 H1 0.832001 0.6398 0.71690  0.111228318681
 H1 0.240684 0.721765 0.83099  0.111228318681
 H1 0.740689 0.721765 0.83099  0.111228318681
 H1 0.388884 0.794181 0.88399  0.111228318681
 H1 0.88889 0.794181 0.88399  0.111228318681
 H1 0.384172 0.742936 0.96022  0.111228318681
 H1 0.884178 0.742936 0.96022  0.111228318681
 H1 0.206024 0.809204 0.97802  0.111228318681
 H1 0.70603 0.809204 0.97802  0.111228318681
 H1 0.211071 0.85942 0.90119  0.111228318681
 H1 0.711077 0.859419 0.90119  0.111228318681
 H1 0.397559 0.689092 0.10188  0.111228318681
 H1 0.897565 0.689092 0.10188  0.111228318681
 H1 0.309976 0.630749 0.22500  0.111228318681
 H1 0.809983 0.630749 0.22500  0.111228318681
 H1 0.207621 0.703081 0.11293  0.111228318681
 H1 0.707628 0.70308 0.11293  0.111228318681
 C1 0.354957 0.901971 0.59935  0.713957128205
 C1 0.854963 0.901971 0.59935  0.713957128205
 C2 0.384847 0.897072 0.55389  -0.0551005384615
 C2 0.884853 0.897072 0.55389  -0.0551005384615
 C3 0.42284 0.942417 0.53857  -0.0544706098901
 C3 0.922845 0.942418 0.53857  -0.0544706098901
 C3 0.451599 0.936897 0.49659  -0.0544706098901
 C3 0.951604 0.936898 0.49659  -0.0544706098901
 C2 0.443007 0.88565 0.46851  -0.0551005384615
 C2 0.943012 0.885651 0.46851  -0.0551005384615
 C3 0.405042 0.839998 0.48428  -0.0544706098901
 C3 0.905048 0.839998 0.48428  -0.0544706098901
 C3 0.376505 0.84576 0.52632  -0.0544706098901
 C3 0.876512 0.84576 0.52632  -0.0544706098901
 C4 0.471058 0.880525 0.42513  -0.0907245384615
 C4 0.971063 0.880525 0.42513  -0.0907245384615
 C4 0.493809 0.876838 0.38714  -0.0907245384615
 C4 0.993814 0.876838 0.38714  -0.0907245384615
 C2 0.018325 0.872344 0.34233  -0.0551005384615
 C2 0.518333 0.872343 0.34233  -0.0551005384615
 C3 0.048354 0.92096 0.32247  -0.0544706098901
 C3 0.548361 0.92096 0.32247  -0.0544706098901
 C2 0.071092 0.916548 0.27775  -0.0551005384615
 C2 0.5711 0.916548 0.27775  -0.0551005384615
 C3 0.064449 0.863407 0.25223  -0.0544706098901
 C3 0.564456 0.863407 0.25223  -0.0544706098901
 C2 0.034846 0.814727 0.27175  -0.0551005384615
 C2 0.534854 0.814727 0.27175  -0.0551005384615
 C3 0.01206 0.81915 0.31636  -0.0544706098901
 C3 0.512067 0.81915 0.31636  -0.0544706098901
 C1 0.100961 0.970175 0.25795  0.713957128205
 C1 0.600968 0.970175 0.25795  0.713957128205
 C1 0.02806 0.756436 0.24615  0.713957128205
 C1 0.528068 0.756436 0.24615  0.713957128205
 C1 0.055189 0.641415 0.34243  0.713957128205
 C1 0.555196 0.641415 0.34243  0.713957128205
 C2 0.051447 0.671108 0.38813  -0.0551005384615
 C2 0.551454 0.671108 0.38813  -0.0551005384615
 C3 0.100237 0.703494 0.4042  -0.0544706098901
 C3 0.600244 0.703494 0.4042  -0.0544706098901
 C3 0.098282 0.732009 0.44664  -0.0544706098901
 C3 0.598289 0.732008 0.44664  -0.0544706098901
 C2 0.047322 0.728464 0.4744  -0.0551005384615
 C2 0.547329 0.728463 0.4744  -0.0551005384615
 C3 0.998092 0.696524 0.45781  -0.0544706098901
 C3 0.498099 0.696524 0.45781  -0.0544706098901
 C3 0.000203 0.668346 0.41509  -0.0544706098901
 C3 0.50021 0.668346 0.41509  -0.0544706098901
 C4 0.047462 0.755611 0.51843  -0.0907245384615
 C4 0.547469 0.75561 0.51843  -0.0907245384615
 C4 0.051485 0.778133 0.5566  -0.0907245384615
 C4 0.551492 0.778132 0.5566  -0.0907245384615
 C2 0.054492 0.802771 0.6015  -0.0551005384615
 C2 0.554499 0.802771 0.6015  -0.0551005384615
 C3 0.108803 0.818775 0.62138  -0.0544706098901
 C3 0.608809 0.818775 0.62138  -0.0544706098901
 C2 0.110848 0.842524 0.66596  -0.0551005384615
 C2 0.610855 0.842524 0.66596  -0.0551005384615
 C3 0.05871 0.851199 0.69106  -0.0544706098901
 C3 0.558717 0.851199 0.69106  -0.0544706098901
 C2 0.004691 0.834483 0.67182  -0.0551005384615
 C2 0.504698 0.834483 0.67182  -0.0551005384615
 C3 0.002582 0.810319 0.62748  -0.0544706098901
 C3 0.502589 0.810319 0.62748  -0.0544706098901
 C1 0.169521 0.855774 0.68722  0.713957128205
 C1 0.669528 0.855774 0.68722  0.713957128205
 C1 0.447983 0.842462 0.69753  0.713957128205
 C1 0.947989 0.842462 0.69753  0.713957128205
 C1 0.144892 0.095755 0.099  0.713957128205
 C1 0.644899 0.095755 0.099  0.713957128205
 C2 0.11477 0.101053 0.05422  -0.0551005384615
 C2 0.614777 0.101053 0.05422  -0.0551005384615
 C3 0.076737 0.055886 0.03851  -0.0544706098901
 C3 0.576742 0.055887 0.03851  -0.0544706098901
 C3 0.047917 0.061868 0.99656  -0.0544706098901
 C3 0.547922 0.061869 0.99656  -0.0544706098901
 C2 0.056466 0.113421 0.96894  -0.0551005384615
 C2 0.556474 0.113421 0.96894  -0.0551005384615
 C3 0.094383 0.158942 0.98516  -0.0544706098901
 C3 0.594392 0.158941 0.98516  -0.0544706098901
 C3 0.122999 0.152692 0.02713  -0.0544706098901
 C3 0.623008 0.152691 0.02713  -0.0544706098901
 C4 0.028506 0.118888 0.92553  -0.0907245384615
 C4 0.528514 0.118887 0.92553  -0.0907245384615
 C4 0.00595 0.122737 0.88745  -0.0907245384615
 C4 0.505957 0.122737 0.88745  -0.0907245384615
 C2 0.48151 0.12695 0.84258  -0.0551005384615
 C2 0.981516 0.126951 0.84258  -0.0551005384615
 C3 0.452133 0.077853 0.82262  -0.0544706098901
 C3 0.952139 0.077853 0.82262  -0.0544706098901
 C2 0.42943 0.081782 0.77787  -0.0551005384615
 C2 0.929436 0.081782 0.77787  -0.0551005384615
 C3 0.435377 0.135012 0.75243  -0.0544706098901
 C3 0.935383 0.135012 0.75243  -0.0544706098901
 C2 0.464249 0.184225 0.77205  -0.0551005384615
 C2 0.964255 0.184225 0.77205  -0.0551005384615
 C3 0.487094 0.180185 0.81669  -0.0544706098901
 C3 0.9871 0.180185 0.81669  -0.0544706098901
 C1 0.40005 0.027724 0.75802  0.713957128205
 C1 0.900057 0.027724 0.75802  0.713957128205
 C1 0.470197 0.242675 0.74658  0.713957128205
 C1 0.970204 0.242675 0.74658  0.713957128205
 C1 0.442476 0.35857 0.84251  0.713957128205
 C1 0.942482 0.358571 0.84251  0.713957128205
 C2 0.446444 0.329007 0.88820  -0.0551005384615
 C2 0.94645 0.329011 0.88820  -0.0551005384615
 C3 0.397722 0.296791 0.90453  -0.0544706098901
 C3 0.897727 0.296797 0.90453  -0.0544706098901
 C3 0.399981 0.268377 0.94687  -0.0544706098901
 C3 0.899986 0.268386 0.9468  -0.0544706098901
 C2 0.451201 0.271814 0.97446  -0.0551005384615
 C2 0.951206 0.271822 0.97446  -0.0551005384615
 C3 0.500349 0.303602 0.95764  -0.0544706098901
 C3 0.0 0.303608 0.9576  -0.0544706098901
 C3 0.497921 0.331698 0.91497  -0.0544706098901
 C3 0.997928 0.331702 0.91497  -0.0544706098901
 C4 0.451448 0.244658 0.01839  -0.0907245384615
 C4 0.951454 0.244666 0.01839  -0.0907245384615
 C4 0.447883 0.22206 0.05652  -0.0907245384615
 C4 0.947889 0.222067 0.0565  -0.0907245384615
 C2 0.445202 0.197172 0.10131  -0.0551005384615
 C2 0.945208 0.197178 0.10131  -0.0551005384615
 C3 0.390964 0.181301 0.12128  -0.0544706098901
 C3 0.890971 0.181306 0.12128  -0.0544706098901
 C2 0.38913 0.157226 0.16571  -0.0551005384615
 C2 0.889137 0.157228 0.16571  -0.0551005384615
 C3 0.441455 0.148014 0.19051  -0.0544706098901
 C3 0.941462 0.148015 0.19051  -0.0544706098901
 C2 0.495427 0.164599 0.17120  -0.0551005384615
 C2 0.995433 0.164601 0.17120  -0.0551005384615
 C3 0.497296 0.189176 0.12703  -0.0544706098901
 C3 0.997303 0.18918 0.1270  -0.0544706098901
 C1 0.330512 0.144162 0.18710  0.713957128205
 C1 0.830519 0.144163 0.18710  0.713957128205
 C1 0.052266 0.156192 0.19676  0.713957128205
 C1 0.552273 0.156191 0.1967  0.713957128205
 C1 0.394793 0.400391 0.59865  0.713957128205
 C1 0.8948 0.400391 0.59865  0.713957128205
 C2 0.364904 0.395455 0.55317  -0.0551005384615
 C2 0.864911 0.395455 0.55317  -0.0551005384615
 C3 0.327097 0.441517 0.53721  -0.0544706098901
 C3 0.827103 0.441517 0.53721  -0.0544706098901
 C3 0.298424 0.435943 0.49520  -0.0544706098901
 C3 0.798431 0.435943 0.49520  -0.0544706098901
 C2 0.306897 0.383934 0.46770  -0.0551005384615
 C2 0.806902 0.383933 0.46770  -0.0551005384615
 C3 0.344643 0.337552 0.48414  -0.0544706098901
 C3 0.844649 0.337551 0.48414  -0.0544706098901
 C3 0.373088 0.343369 0.5262  -0.0544706098901
 C3 0.873094 0.343368 0.5262  -0.0544706098901
 C4 0.278945 0.378913 0.42426  -0.0907245384615
 C4 0.778951 0.378913 0.4242  -0.0907245384615
 C4 0.256173 0.375586 0.38625  -0.0907245384615
 C4 0.756179 0.375585 0.38625  -0.0907245384615
 C2 0.231577 0.371517 0.34142  -0.0551005384615
 C2 0.731583 0.371517 0.34142  -0.0551005384615
 C3 0.202299 0.421083 0.3211  -0.0544706098901
 C3 0.702305 0.421083 0.3211  -0.0544706098901
 C2 0.179534 0.417099 0.27642  -0.0551005384615
 C2 0.679541 0.417099 0.27642  -0.0551005384615
 C3 0.185344 0.363345 0.25130  -0.0544706098901
 C3 0.68535 0.363345 0.25130  -0.0544706098901
 C2 0.2141 0.313665 0.27123  -0.0551005384615
 C2 0.714107 0.313665 0.27123  -0.0551005384615
 C3 0.236974 0.317761 0.31584  -0.0544706098901
 C3 0.73698 0.317761 0.31584  -0.0544706098901
 C1 0.150212 0.471694 0.25633  0.713957128205
 C1 0.650219 0.471694 0.25633  0.713957128205
 C1 0.220076 0.254673 0.24615  0.713957128205
 C1 0.720082 0.254673 0.24615  0.713957128205
 C1 0.194785 0.139159 0.34241  0.713957128205
 C1 0.694791 0.139159 0.34241  0.713957128205
 C2 0.198562 0.169277 0.38793  -0.0551005384615
 C2 0.698569 0.169278 0.38793  -0.0551005384615
 C3 0.149521 0.202257 0.4042  -0.0544706098901
 C3 0.649528 0.202259 0.40423  -0.0544706098901
 C3 0.151586 0.23108 0.44647  -0.0544706098901
 C3 0.651594 0.231082 0.44647  -0.0544706098901
 C2 0.202916 0.227261 0.47399  -0.0551005384615
 C2 0.702923 0.227261 0.47399  -0.0551005384615
 C3 0.252423 0.194803 0.45716  -0.0544706098901
 C3 0.752429 0.194802 0.45716  -0.0544706098901
 C3 0.250193 0.166323 0.41457  -0.0544706098901
 C3 0.7502 0.166322 0.41457  -0.0544706098901
 C4 0.202798 0.254556 0.51795  -0.0907245384615
 C4 0.702805 0.254556 0.51795  -0.0907245384615
 C4 0.198688 0.277076 0.5561  -0.0907245384615
 C4 0.698695 0.277076 0.5561  -0.0907245384615
 C2 0.195279 0.301644 0.60111  -0.0551005384615
 C2 0.695286 0.301644 0.60111  -0.0551005384615
 C3 0.140564 0.317046 0.62114  -0.0544706098901
 C3 0.64057 0.317046 0.62114  -0.0544706098901
 C2 0.137991 0.340616 0.6657  -0.0551005384615
 C2 0.637998 0.340616 0.6657  -0.0551005384615
 C3 0.189991 0.349745 0.6907  -0.0544706098901
 C3 0.689997 0.349745 0.6907  -0.0544706098901
 C2 0.244443 0.333665 0.67135  -0.0551005384615
 C2 0.74445 0.333665 0.67135  -0.0551005384615
 C3 0.247101 0.309654 0.62696  -0.0544706098901
 C3 0.747108 0.309654 0.62696  -0.0544706098901
 C1 0.079049 0.353248 0.68725  0.713957128205
 C1 0.579056 0.353248 0.68725  0.713957128205
 C1 0.300935 0.342087 0.69711  0.713957128205
 C1 0.800942 0.342087 0.69711  0.713957128205
 C1 0.104836 0.599375 0.09856  0.713957128205
 C1 0.604842 0.599375 0.09856  0.713957128205
 C2 0.134769 0.60445 0.05317  -0.0551005384615
 C2 0.634774 0.60445 0.05317  -0.0551005384615
 C3 0.172887 0.558636 0.03717  -0.0544706098901
 C3 0.672892 0.558636 0.03717  -0.0544706098901
 C3 0.20154 0.564388 0.99522  -0.0544706098901
 C3 0.701545 0.564388 0.99522  -0.0544706098901
 C2 0.192767 0.616348 0.96784  -0.0551005384615
 C2 0.692772 0.616347 0.96784  -0.0551005384615
 C3 0.154729 0.662492 0.98434  -0.0544706098901
 C3 0.654735 0.662492 0.98434  -0.0544706098901
 C3 0.126269 0.656477 0.02631  -0.0544706098901
 C3 0.626275 0.656477 0.02631  -0.0544706098901
 C4 0.220695 0.621522 0.92446  -0.0907245384615
 C4 0.7207 0.621521 0.9244  -0.0907245384615
 C4 0.243424 0.624927 0.88646  -0.0907245384615
 C4 0.743429 0.624927 0.88646  -0.0907245384615
 C2 0.267996 0.628868 0.84166  -0.0551005384615
 C2 0.768001 0.628867 0.84166  -0.0551005384615
 C3 0.297096 0.579149 0.82137  -0.0544706098901
 C3 0.797101 0.579149 0.82137  -0.0544706098901
 C2 0.319874 0.58294 0.77666  -0.0551005384615
 C2 0.81988 0.58294 0.77666  -0.0551005384615
 C3 0.314267 0.636607 0.75159  -0.0544706098901
 C3 0.814273 0.636607 0.75159  -0.0544706098901
 C2 0.285596 0.686384 0.77151  -0.0551005384615
 C2 0.785602 0.686384 0.77151  -0.0551005384615
 C3 0.262715 0.68254 0.81610  -0.0544706098901
 C3 0.762721 0.682539 0.81610  -0.0544706098901
 C1 0.348886 0.528194 0.75650  0.713957128205
 C1 0.848892 0.528194 0.75650  0.713957128205
 C1 0.27968 0.74515 0.74634  0.713957128205
 C1 0.779687 0.74515 0.74634  0.713957128205
 C1 0.304867 0.859919 0.84262  0.713957128205
 C1 0.804874 0.859919 0.84262  0.713957128205
 C2 0.300506 0.83031 0.88822  -0.0551005384615
 C2 0.800512 0.83031 0.88822  -0.0551005384615
 C3 0.349171 0.797114 0.90492  -0.0544706098901
 C3 0.849178 0.797114 0.90492  -0.0544706098901
 C3 0.346518 0.768662 0.94720  -0.0544706098901
 C3 0.846525 0.768662 0.94720  -0.0544706098901
 C2 0.294942 0.77301 0.97436  -0.0551005384615
 C2 0.794948 0.773009 0.97436  -0.0551005384615
 C3 0.245838 0.805748 0.95716  -0.0544706098901
 C3 0.745844 0.805747 0.95716  -0.0544706098901
 C3 0.248674 0.833906 0.91455  -0.0544706098901
 C3 0.74868 0.833906 0.91455  -0.0544706098901
 C4 0.294526 0.745808 0.01827  -0.0907245384615
 C4 0.794532 0.745807 0.01827  -0.0907245384615
 C4 0.298473 0.723087 0.05637  -0.0907245384615
 C4 0.798479 0.723086 0.05637  -0.0907245384615
 C2 0.302014 0.698226 0.10116  -0.0551005384615
 C2 0.80202 0.698225 0.10116  -0.0551005384615
 C3 0.356812 0.682351 0.12088  -0.0544706098901
 C3 0.856819 0.68235 0.12088  -0.0544706098901
 C2 0.359649 0.658579 0.16539  -0.0551005384615
 C2 0.859655 0.658578 0.16539  -0.0551005384615
 C3 0.307787 0.649646 0.19052  -0.0544706098901
 C3 0.807794 0.649645 0.19052  -0.0544706098901
 C2 0.253242 0.666061 0.17141  -0.0551005384615
 C2 0.753249 0.666061 0.17141  -0.0551005384615
 C3 0.250368 0.690351 0.12716  -0.0544706098901
 C3 0.750374 0.690351 0.12716  -0.0544706098901
 C1 0.418754 0.64557 0.18653  0.713957128205
 C1 0.918761 0.64557 0.18653  0.713957128205
 C1 0.196796 0.657706 0.19721  0.713957128205
 C1 0.696803 0.657706 0.19721  0.713957128205
 O1 0.310539 0.902742 0.7220  -1.23326453846
 O1 0.810545 0.902742 0.7220  -1.23326453846
 O2 0.322576 0.859293 0.61245  -0.620982038462
 O2 0.822583 0.859293 0.61245  -0.620982038462
 O2 0.365084 0.951031 0.62249  -0.620982038462
 O2 0.865091 0.951031 0.62249  -0.620982038462
 O2 0.105314 0.016212 0.28352  -0.620982038462
 O2 0.605321 0.016212 0.28352  -0.620982038462
 O2 0.119728 0.966002 0.21  -0.620982038462
 O2 0.619735 0.966002 0.21  -0.620982038462
 O2 0.050121 0.752068 0.2059  -0.620982038462
 O2 0.550128 0.752069 0.2059  -0.620982038462
 O2 0.501107 0.715069 0.26762  -0.620982038462
 O2 0.0 0.71507 0.26762  -0.620982038462
 O2 0.104974 0.645787 0.32183  -0.620982038462
 O2 0.60498 0.645787 0.32183  -0.620982038462
 O2 0.009946 0.614324 0.32634  -0.620982038462
 O2 0.509952 0.614324 0.32634  -0.620982038462
 O2 0.215295 0.838721 0.66587  -0.620982038462
 O2 0.715301 0.838721 0.66587  -0.620982038462
 O2 0.168389 0.883016 0.72662  -0.620982038462
 O2 0.668395 0.883016 0.72662  -0.620982038462
 O2 0.40208 0.820597 0.68006  -0.620982038462
 O2 0.902086 0.820597 0.68006  -0.620982038462
 O2 0.450626 0.872387 0.73566  -0.620982038462
 O2 0.950633 0.872388 0.73566  -0.620982038462
 O1 0.189693 0.096099 0.22182  -1.23326453846
 O1 0.6897 0.0961 0.22182  -1.23326453846
 O2 0.177483 0.138253 0.11283  -0.620982038462
 O2 0.67749 0.138253 0.11283  -0.620982038462
 O2 0.134793 0.046623 0.12254  -0.620982038462
 O2 0.6348 0.046623 0.12254  -0.620982038462
 O2 0.39504 0.982014 0.78374  -0.620982038462
 O2 0.895047 0.982014 0.78374  -0.620982038462
 O2 0.382249 0.031384 0.71577  -0.620982038462
 O2 0.882256 0.031384 0.71577  -0.620982038462
 O2 0.447247 0.246963 0.70659  -0.620982038462
 O2 0.947254 0.246963 0.70659  -0.620982038462
 O2 0.997303 0.284212 0.76785  -0.620982038462
 O2 0.497309 0.284212 0.76785  -0.620982038462
 O2 0.392641 0.354158 0.82192  -0.620982038462
 O2 0.892647 0.354158 0.82192  -0.620982038462
 O2 0.487666 0.385638 0.82643  -0.620982038462
 O2 0.987673 0.385638 0.82643  -0.620982038462
 O2 0.284669 0.161219 0.16583  -0.620982038462
 O2 0.784675 0.161219 0.16583  -0.620982038462
 O2 0.331734 0.117089 0.22650  -0.620982038462
 O2 0.83174 0.117089 0.22650  -0.620982038462
 O2 0.097972 0.179162 0.17995  -0.620982038462
 O2 0.597978 0.179162 0.17995  -0.620982038462
 O2 0.04981 0.124852 0.23415  -0.620982038462
 O2 0.549817 0.124852 0.23415  -0.620982038462
 O1 0.43747 0.401013 0.7217  -1.23326453846
 O1 0.937476 0.401013 0.7217  -1.23326453846
 O2 0.426896 0.357015 0.61229  -0.620982038462
 O2 0.926903 0.357015 0.61229  -0.620982038462
 O2 0.385002 0.450281 0.62120  -0.620982038462
 O2 0.885009 0.450281 0.62120  -0.620982038462
 O2 0.145241 0.517682 0.28200  -0.620982038462
 O2 0.645248 0.517682 0.28200  -0.620982038462
 O2 0.132416 0.468284 0.21408  -0.620982038462
 O2 0.632423 0.468284 0.21408  -0.620982038462
 O2 0.197253 0.250238 0.2061  -0.620982038462
 O2 0.697259 0.250238 0.2061  -0.620982038462
 O2 0.24723 0.212894 0.26777  -0.620982038462
 O2 0.747237 0.212894 0.26777  -0.620982038462
 O2 0.144721 0.143537 0.32202  -0.620982038462
 O2 0.644727 0.143537 0.32202  -0.620982038462
 O2 0.240348 0.11167 0.32625  -0.620982038462
 O2 0.740354 0.11167 0.32625  -0.620982038462
 O2 0.033712 0.336014 0.66584  -0.620982038462
 O2 0.533719 0.336014 0.66584  -0.620982038462
 O2 0.07946 0.380199 0.72675  -0.620982038462
 O2 0.579467 0.380199 0.72675  -0.620982038462
 O2 0.347491 0.320309 0.67988  -0.620982038462
 O2 0.847498 0.320309 0.67988  -0.620982038462
 O2 0.297339 0.372235 0.73511  -0.620982038462
 O2 0.797345 0.372235 0.73511  -0.620982038462
 O1 0.060343 0.598086 0.22159  -1.23326453846
 O1 0.560349 0.598086 0.22159  -1.23326453846
 O2 0.072296 0.642514 0.11208  -0.620982038462
 O2 0.572302 0.642514 0.11208  -0.620982038462
 O2 0.115073 0.549739 0.12120  -0.620982038462
 O2 0.61508 0.549739 0.12120  -0.620982038462
 O2 0.352662 0.482018 0.78196  -0.620982038462
 O2 0.852669 0.482018 0.78196  -0.620982038462
 O2 0.36757 0.531686 0.71451  -0.620982038462
 O2 0.867577 0.531686 0.71451  -0.620982038462
 O2 0.302706 0.74926 0.70643  -0.620982038462
 O2 0.802712 0.74926 0.70643  -0.620982038462
 O2 0.252401 0.787043 0.76777  -0.620982038462
 O2 0.752408 0.787043 0.76777  -0.620982038462
 O2 0.3548 0.854228 0.82220  -0.620982038462
 O2 0.854806 0.854228 0.82220  -0.620982038462
 O2 0.259845 0.888257 0.82639  -0.620982038462
 O2 0.759852 0.888257 0.82639  -0.620982038462
 O2 0.464074 0.661541 0.16457  -0.620982038462
 O2 0.964081 0.661541 0.16457  -0.620982038462
 O2 0.418428 0.619634 0.22635  -0.620982038462
 O2 0.918435 0.619634 0.22635  -0.620982038462
 O2 0.150229 0.679555 0.18008  -0.620982038462
 O2 0.650236 0.679555 0.18008  -0.620982038462
 O2 0.200397 0.627483 0.23512  -0.620982038462
 O2 0.700403 0.627483 0.23512  -0.620982038462
