#======================================================================

# CRYSTAL DATA

#----------------------------------------------------------------------

data_VESTA_phase_1


_pd_phase_name                         MOF
_cell_length_a                         12.56300
_cell_length_b                         12.56100
_cell_length_c                         25.82800
_cell_angle_alpha                      90.00000
_cell_angle_beta                       90.00000
_cell_angle_gamma                      89.99200
_symmetry_space_group_name_H-M         "P 1"
_symmetry_Int_Tables_number            1

loop_
_symmetry_equiv_pos_as_xyz
   "x, y, z"

loop_
   _atom_site_label
   _atom_site_fract_x
   _atom_site_fract_y
   _atom_site_fract_z
 _atom_site_charge
 Cd1 0.750009 0.750024 0.91625  0.683435080645
 Cd1 0.250003 0.250005 0.41624  0.683435080645
 Cd1 0.250001 0.250008 0.08376  0.683435080645
 Cd1 0.750008 0.750022 0.58377  0.683435080645
 H1 0.91645 0.558385 0.87181  0.0867848723118
 H1 0.935363 0.40878 0.80794  0.0867848723118
 H1 0.636891 0.512633 0.74083  0.0867848723118
 H1 0.629114 0.651673 0.80901  0.0867848723118
 H1 0.64265 0.327732 0.71984  0.0867848723118
 H1 0.705829 0.416199 0.67411  0.0867848723118
 H1 0.595187 0.174414 0.65500  0.0867848723118
 H1 0.685956 0.156619 0.60282  0.0867848723118
 H1 0.420131 0.111501 0.48727  0.0867848723118
 H1 0.554487 0.116769 0.55840  0.0867848723118
 H1 0.497766 0.456851 0.56774  0.0867848723118
 H1 0.363384 0.4347 0.49727  0.0867848723118
 H2 0.509143 0.795958 0.92982  0.0977550806452
 H1 0.583577 0.941679 0.87182  0.0867848723118
 H1 0.564672 0.091248 0.8079  0.0867848723118
 H1 0.863117 0.987406 0.74082  0.0867848723118
 H1 0.870893 0.848365 0.8090  0.0867848723118
 H1 0.857376 0.172277 0.71984  0.0867848723118
 H1 0.794192 0.083812 0.67411  0.0867848723118
 H1 0.904838 0.325597 0.65500  0.0867848723118
 H1 0.81407 0.343395 0.60282  0.0867848723118
 H1 0.079874 0.388507 0.48727  0.0867848723118
 H1 0.945538 0.383242 0.55840  0.0867848723118
 H1 0.002239 0.04316 0.56774  0.0867848723118
 H1 0.136619 0.065308 0.49727  0.0867848723118
 H2 0.990879 0.70411 0.92983  0.0977550806452
 H1 0.441756 0.416376 0.37183  0.0867848723118
 H1 0.591322 0.435307 0.30796  0.0867848723118
 H1 0.487363 0.136972 0.24073  0.0867848723118
 H1 0.348346 0.129168 0.30891  0.0867848723118
 H1 0.672312 0.142633 0.21979  0.0867848723118
 H1 0.583851 0.205851 0.17407  0.0867848723118
 H1 0.825615 0.09515 0.15496  0.0867848723118
 H1 0.843362 0.185915 0.10277  0.0867848723118
 H1 0.888447 0.920111 0.98723  0.0867848723118
 H1 0.883202 0.054423 0.05836  0.0867848723118
 H1 0.543175 0.997762 0.06773  0.0867848723118
 H1 0.565319 0.86338 0.99727  0.0867848723118
 H2 0.204044 0.009194 0.42979  0.0977550806452
 H1 0.058259 0.08363 0.37183  0.0867848723118
 H1 0.908707 0.064703 0.30795  0.0867848723118
 H1 0.012643 0.363045 0.24073  0.0867848723118
 H1 0.151662 0.370845 0.30891  0.0867848723118
 H1 0.827709 0.357383 0.21979  0.0867848723118
 H1 0.916169 0.294168 0.17407  0.0867848723118
 H1 0.674407 0.404869 0.1549  0.0867848723118
 H1 0.656657 0.314104 0.10277  0.0867848723118
 H1 0.611568 0.57995 0.98724  0.0867848723118
 H1 0.616815 0.445607 0.05836  0.0867848723118
 H1 0.956841 0.502277 0.0677  0.0867848723118
 H1 0.934703 0.636652 0.99726  0.0867848723118
 H2 0.29596 0.490815 0.42979  0.0977550806452
 H1 0.083566 0.441656 0.12819  0.0867848723118
 H1 0.064655 0.591264 0.1920  0.0867848723118
 H1 0.363112 0.487389 0.25919  0.0867848723118
 H1 0.370886 0.348347 0.19100  0.0867848723118
 H1 0.357361 0.672294 0.28017  0.0867848723118
 H1 0.294178 0.583833 0.32590  0.0867848723118
 H1 0.404825 0.825619 0.34500  0.0867848723118
 H1 0.314052 0.843415 0.39719  0.0867848723118
 H1 0.579881 0.888526 0.51274  0.0867848723118
 H1 0.445525 0.883261 0.44161  0.0867848723118
 H1 0.50224 0.543179 0.43227  0.0867848723118
 H1 0.636621 0.565328 0.50274  0.0867848723118
 H2 0.490871 0.204096 0.07018  0.0977550806452
 H1 0.416442 0.058369 0.12820  0.0867848723118
 H1 0.435348 0.9088 0.19207  0.0867848723118
 H1 0.136884 0.012615 0.25918  0.0867848723118
 H1 0.129106 0.151655 0.19100  0.0867848723118
 H1 0.142636 0.827755 0.28017  0.0867848723118
 H1 0.205817 0.916217 0.32590  0.0867848723118
 H1 0.095172 0.674432 0.3450  0.0867848723118
 H1 0.185946 0.656638 0.39719  0.0867848723118
 H1 0.920129 0.611519 0.51274  0.0867848723118
 H1 0.05447 0.616788 0.44161  0.0867848723118
 H1 0.997773 0.95687 0.43227  0.0867848723118
 H1 0.863389 0.934718 0.50274  0.0867848723118
 H2 0.009134 0.295937 0.07018  0.0977550806452
 H1 0.558264 0.583647 0.62818  0.0867848723118
 H1 0.408695 0.564721 0.69206  0.0867848723118
 H1 0.512651 0.863061 0.75928  0.0867848723118
 H1 0.65167 0.870861 0.69110  0.0867848723118
 H1 0.327701 0.8574 0.78022  0.0867848723118
 H1 0.416158 0.794184 0.82594  0.0867848723118
 H1 0.174397 0.904887 0.84504  0.0867848723118
 H1 0.156646 0.814119 0.8972  0.0867848723118
 H1 0.11156 0.079935 0.01277  0.0867848723118
 H1 0.116806 0.945622 0.94165  0.0867848723118
 H1 0.456839 0.002253 0.9322  0.0867848723118
 H1 0.434695 0.136635 0.00275  0.0867848723118
 H2 0.795967 0.990833 0.57022  0.0977550806452
 H1 0.941761 0.916395 0.62818  0.0867848723118
 H1 0.091309 0.935326 0.69205  0.0867848723118
 H1 0.987371 0.636987 0.75928  0.0867848723118
 H1 0.848355 0.629183 0.69109  0.0867848723118
 H1 0.1723 0.642651 0.78022  0.0867848723118
 H1 0.083842 0.705868 0.82594  0.0867848723118
 H1 0.325605 0.595166 0.84504  0.0867848723118
 H1 0.343352 0.685934 0.89724  0.0867848723118
 H1 0.388438 0.420096 0.01278  0.0867848723118
 H1 0.383191 0.554442 0.94165  0.0867848723118
 H1 0.043172 0.497745 0.93228  0.0867848723118
 H1 0.06531 0.363368 0.00274  0.0867848723118
 H2 0.704047 0.509212 0.57022  0.0977550806452
 C1 0.855457 0.543655 0.8425  0.204797580645
 C2 0.866837 0.461917 0.80695  -0.329046169355
 C3 0.787113 0.447589 0.76941  0.360227580645
 C2 0.700267 0.51763 0.76936  -0.329046169355
 C1 0.696232 0.596586 0.80725  0.204797580645
 C4 0.716729 0.345697 0.69886  0.0748650806452
 C4 0.656619 0.214092 0.63153  0.0748650806452
 C1 0.440319 0.186553 0.50636  0.204797580645
 C2 0.515083 0.189995 0.54622  -0.329046169355
 C3 0.537947 0.289081 0.56864  0.360227580645
 C2 0.482863 0.379034 0.55064  -0.329046169355
 C1 0.408946 0.366582 0.51129  0.204797580645
 C1 0.644565 0.956403 0.84259  0.204797580645
 C2 0.633194 0.038104 0.80695  -0.329046169355
 C3 0.712912 0.052425 0.76941  0.360227580645
 C2 0.799745 0.982414 0.76936  -0.329046169355
 C1 0.803779 0.903458 0.80724  0.204797580645
 C4 0.783295 0.154314 0.69886  0.0748650806452
 C4 0.843407 0.28592 0.63153  0.0748650806452
 C1 0.059686 0.313456 0.50636  0.204797580645
 C2 0.98494 0.310015 0.54622  -0.329046169355
 C3 0.962076 0.21093 0.56864  0.360227580645
 C2 0.017141 0.120976 0.55064  -0.329046169355
 C1 0.091058 0.133427 0.51129  0.204797580645
 C1 0.456441 0.355417 0.34258  0.204797580645
 C2 0.538167 0.366806 0.30694  -0.329046169355
 C3 0.552457 0.287122 0.26937  0.360227580645
 C2 0.482396 0.200308 0.26930  -0.329046169355
 C1 0.40345 0.196263 0.30718  0.204797580645
 C4 0.654343 0.216734 0.19882  0.0748650806452
 C4 0.78592 0.156588 0.13149  0.0748650806452
 C1 0.813412 0.940308 0.00632  0.204797580645
 C2 0.809986 0.015032 0.04619  -0.329046169355
 C3 0.710921 0.037903 0.06861  0.360227580645
 C2 0.620974 0.98286 0.05062  -0.329046169355
 C1 0.63342 0.908943 0.01127  0.204797580645
 C1 0.043571 0.144592 0.34257  0.204797580645
 C2 0.961861 0.133206 0.30694  -0.329046169355
 C3 0.947569 0.212893 0.26937  0.360227580645
 C2 0.017612 0.299707 0.269  -0.329046169355
 C1 0.096559 0.303749 0.30718  0.204797580645
 C4 0.845678 0.283284 0.19882  0.0748650806452
 C4 0.7141 0.343431 0.13149  0.0748650806452
 C1 0.686599 0.559753 0.00632  0.204797580645
 C2 0.690032 0.484992 0.04619  -0.329046169355
 C3 0.789099 0.462113 0.06861  0.360227580645
 C2 0.87904 0.517186 0.05062  -0.329046169355
 C1 0.866593 0.591102 0.0112  0.204797580645
 C5 0.750013 0.250006 0.66556  -0.0427149193548
 C5 0.75001 0.25001 0.16552  -0.0427149193548
 C1 0.144556 0.456382 0.15742  0.204797580645
 C2 0.133176 0.53812 0.19306  -0.329046169355
 C3 0.212897 0.552442 0.23060  0.360227580645
 C2 0.299739 0.482396 0.23065  -0.329046169355
 C1 0.303773 0.40344 0.1927  0.204797580645
 C4 0.283281 0.654341 0.30115  0.0748650806452
 C4 0.3434 0.78594 0.36848  0.0748650806452
 C1 0.55969 0.813475 0.49365  0.204797580645
 C2 0.484931 0.810035 0.4537  -0.329046169355
 C3 0.462062 0.710949 0.43137  0.360227580645
 C2 0.517147 0.620996 0.44937  -0.329046169355
 C1 0.591059 0.633447 0.48872  0.204797580645
 C1 0.355449 0.043638 0.15742  0.204797580645
 C2 0.366822 0.961938 0.19306  -0.329046169355
 C3 0.287099 0.94761 0.23060  0.360227580645
 C2 0.20026 0.017613 0.2306  -0.329046169355
 C1 0.196224 0.096568 0.19276  0.204797580645
 C4 0.216716 0.845712 0.30115  0.0748650806452
 C4 0.156601 0.714111 0.36848  0.0748650806452
 C1 0.94032 0.686571 0.49364  0.204797580645
 C2 0.015063 0.690013 0.45378  -0.329046169355
 C3 0.037934 0.7891 0.43137  0.360227580645
 C2 0.982864 0.879052 0.44937  -0.329046169355
 C1 0.908951 0.8666 0.48872  0.204797580645
 C1 0.543577 0.644609 0.6574  0.204797580645
 C2 0.461851 0.633222 0.69307  -0.329046169355
 C3 0.447559 0.712909 0.73064  0.360227580645
 C2 0.51762 0.799723 0.73071  -0.329046169355
 C1 0.596566 0.803765 0.69283  0.204797580645
 C4 0.345665 0.7833 0.80119  0.0748650806452
 C4 0.21409 0.84345 0.86852  0.0748650806452
 C1 0.186597 0.059731 0.9936  0.204797580645
 C2 0.190022 0.985011 0.95382  -0.329046169355
 C3 0.289089 0.962128 0.931  0.360227580645
 C2 0.379037 0.017166 0.94939  -0.329046169355
 C1 0.366591 0.091079 0.9887  0.204797580645
 C1 0.956447 0.855435 0.65743  0.204797580645
 C2 0.038155 0.866824 0.69307  -0.329046169355
 C3 0.052446 0.787139 0.73064  0.360227580645
 C2 0.982403 0.700324 0.73071  -0.329046169355
 C1 0.903458 0.696279 0.69283  0.204797580645
 C4 0.154336 0.716751 0.80119  0.0748650806452
 C4 0.28591 0.656602 0.86852  0.0748650806452
 C1 0.313409 0.440289 0.99369  0.204797580645
 C2 0.309976 0.515047 0.95382  -0.329046169355
 C3 0.210911 0.537921 0.931  0.360227580645
 C2 0.120972 0.482839 0.9493  -0.329046169355
 C1 0.133418 0.408926 0.98874  0.204797580645
 C5 0.250001 0.750028 0.33446  -0.0427149193548
 C5 0.25 0.750026 0.83449  -0.0427149193548
 S1 0.550175 0.706945 0.90827  -0.610944919355
 S1 0.949841 0.793107 0.90826  -0.610944919355
 S1 0.293072 0.050186 0.40825  -0.610944919355
 S1 0.206933 0.449824 0.40825  -0.610944919355
 S1 0.449833 0.293092 0.09175  -0.610944919355
 S1 0.050167 0.206929 0.09174  -0.610944919355
 S1 0.706939 0.949842 0.5917  -0.610944919355
 S1 0.793077 0.550202 0.59175  -0.610944919355
 N1 0.771379 0.610263 0.84364  -0.346819919355
 N1 0.387546 0.272344 0.48854  -0.346819919355
 N1 0.728638 0.889788 0.84364  -0.346819919355
 N1 0.112459 0.227665 0.48854  -0.346819919355
 N1 0.38981 0.271369 0.3436  -0.346819919355
 N1 0.727638 0.887537 0.98852  -0.346819919355
 N1 0.110202 0.22864 0.34360  -0.346819919355
 N1 0.772379 0.612511 0.98852  -0.346819919355
 N1 0.22863 0.389769 0.15637  -0.346819919355
 N1 0.61246 0.727683 0.51147  -0.346819919355
 N1 0.27137 0.110245 0.1563  -0.346819919355
 N1 0.887551 0.772363 0.51147  -0.346819919355
 N1 0.610208 0.728657 0.65641  -0.346819919355
 N1 0.272372 0.112492 0.01149  -0.346819919355
 N1 0.889817 0.771386 0.65640  -0.346819919355
 N1 0.227629 0.387527 0.01149  -0.346819919355
 O1 0.800892 0.365808 0.73575  -0.264069919355
 O1 0.610396 0.306231 0.6068  -0.264069919355
 O1 0.699134 0.134206 0.73575  -0.264069919355
 O1 0.88963 0.193781 0.60681  -0.264069919355
 O1 0.634228 0.300898 0.23572  -0.264069919355
 O1 0.693786 0.110357 0.10679  -0.264069919355
 O1 0.865795 0.199119 0.23572  -0.264069919355
 O1 0.806235 0.38966 0.10679  -0.264069919355
 O1 0.199124 0.634226 0.26426  -0.264069919355
 O1 0.389618 0.693797 0.39320  -0.264069919355
 O1 0.300875 0.865827 0.26426  -0.264069919355
 O1 0.110382 0.806252 0.39320  -0.264069919355
 O1 0.365784 0.699137 0.76429  -0.264069919355
 O1 0.306226 0.889675 0.89322  -0.264069919355
 O1 0.134217 0.800913 0.76429  -0.264069919355
 O1 0.193774 0.610375 0.89322  -0.264069919355
