#======================================================================

# CRYSTAL DATA

#----------------------------------------------------------------------

data_VESTA_phase_1


_pd_phase_name                         MOF
_cell_length_a                         14.03900
_cell_length_b                         17.60100
_cell_length_c                         19.95400
_cell_angle_alpha                      102.06400
_cell_angle_beta                       104.57900
_cell_angle_gamma                      83.83000
_symmetry_space_group_name_H-M         "P 1"
_symmetry_Int_Tables_number            1

loop_
_symmetry_equiv_pos_as_xyz
   "x, y, z"

loop_
   _atom_site_label
   _atom_site_fract_x
   _atom_site_fract_y
   _atom_site_fract_z
 _atom_site_charge
 Cd1 0.38456 0.265006 0.31584  1.16396025641
 Cd1 0.384557 0.265004 0.81584  1.16396025641
 Cd1 0.384562 0.765005 0.31584  1.16396025641
 Cd1 0.384557 0.765004 0.81584  1.16396025641
 Cd1 0.884515 0.265072 0.31578  1.16396025641
 Cd1 0.884512 0.26507 0.81578  1.16396025641
 Cd1 0.884517 0.765068 0.31577  1.16396025641
 Cd1 0.884512 0.765066 0.81577  1.16396025641
 Cd1 0.115801 0.235082 0.18348  1.16396025641
 Cd1 0.1158 0.235079 0.68348  1.16396025641
 Cd1 0.115802 0.735079 0.18348  1.16396025641
 Cd1 0.115797 0.735077 0.68348  1.16396025641
 Cd1 0.616067 0.23504 0.18349  1.16396025641
 Cd1 0.616065 0.235037 0.6834  1.16396025641
 Cd1 0.616063 0.735045 0.18348  1.16396025641
 Cd1 0.616058 0.735043 0.68348  1.16396025641
 Cd1 0.250179 0.999983 0.24967  1.16396025641
 Cd1 0.250176 0.999981 0.74968  1.16396025641
 Cd1 0.250185 0.499977 0.24968  1.16396025641
 Cd1 0.250181 0.499974 0.74968  1.16396025641
 Cd1 0.750977 0.999862 0.24977  1.16396025641
 Cd1 0.750974 0.999859 0.74977  1.16396025641
 Cd1 0.750977 0.499855 0.24976  1.16396025641
 Cd1 0.750973 0.499854 0.74976  1.16396025641
 H1 0.092106 0.280556 0.46620  0.109331923077
 H1 0.092102 0.280557 0.96620  0.109331923077
 H1 0.092094 0.780558 0.46619  0.109331923077
 H1 0.092089 0.780555 0.96619  0.109331923077
 H1 0.592815 0.280725 0.46663  0.109331923077
 H1 0.592809 0.280725 0.96663  0.109331923077
 H1 0.592796 0.780733 0.4666  0.109331923077
 H1 0.592795 0.78073 0.96663  0.109331923077
 H1 0.323374 0.424104 0.09695  0.109331923077
 H1 0.323369 0.424104 0.59695  0.109331923077
 H1 0.323349 0.924109 0.09695  0.109331923077
 H1 0.323357 0.924102 0.59695  0.109331923077
 H1 0.824582 0.424103 0.0968  0.109331923077
 H1 0.824581 0.424103 0.59681  0.109331923077
 H1 0.824577 0.924096 0.09682  0.109331923077
 H1 0.824575 0.924094 0.59681  0.109331923077
 H1 0.36202 0.452576 0.4905  0.109331923077
 H1 0.36202 0.452571 0.99052  0.109331923077
 H1 0.362015 0.952575 0.49053  0.109331923077
 H1 0.362004 0.952576 0.9905  0.109331923077
 H1 0.862521 0.452666 0.49013  0.109331923077
 H1 0.862519 0.452661 0.9901  0.109331923077
 H1 0.862528 0.952653 0.49013  0.109331923077
 H1 0.862525 0.95265 0.99013  0.109331923077
 H1 0.408725 0.219442 0.03330  0.109331923077
 H1 0.408725 0.219441 0.53331  0.109331923077
 H1 0.408722 0.719449 0.03330  0.109331923077
 H1 0.40872 0.719446 0.53331  0.109331923077
 H1 0.908677 0.219502 0.03328  0.109331923077
 H1 0.908678 0.219499 0.53329  0.109331923077
 H1 0.908671 0.719504 0.03328  0.109331923077
 H1 0.908667 0.719502 0.53328  0.109331923077
 H1 0.177523 0.07596 0.40241  0.109331923077
 H1 0.177514 0.075962 0.90240  0.109331923077
 H1 0.177527 0.575958 0.40240  0.109331923077
 H1 0.177526 0.575956 0.90240  0.109331923077
 H1 0.677617 0.075919 0.40230  0.109331923077
 H1 0.677613 0.075917 0.90229  0.109331923077
 H1 0.677605 0.575923 0.40229  0.109331923077
 H1 0.677606 0.57592 0.9022  0.109331923077
 H1 0.138707 0.047408 0.00877  0.109331923077
 H1 0.138713 0.047399 0.50877  0.109331923077
 H1 0.138718 0.5474 0.00877  0.109331923077
 H1 0.138714 0.547398 0.50877  0.109331923077
 H1 0.638743 0.047327 0.00864  0.109331923077
 H1 0.638743 0.047323 0.50864  0.109331923077
 H1 0.638733 0.547333 0.00863  0.109331923077
 H1 0.638728 0.547331 0.50863  0.109331923077
 C1 0.246355 0.385321 0.41802  -0.10399974359
 C1 0.246351 0.385318 0.91802  -0.10399974359
 C1 0.246351 0.885321 0.41802  -0.10399974359
 C1 0.246344 0.885317 0.9180  -0.10399974359
 C1 0.746648 0.385368 0.41793  -0.10399974359
 C1 0.746644 0.385363 0.91793  -0.10399974359
 C1 0.746651 0.885362 0.41793  -0.10399974359
 C1 0.746646 0.885358 0.91793  -0.10399974359
 C1 0.171965 0.334305 0.41122  -0.10399974359
 C1 0.171962 0.334302 0.91122  -0.10399974359
 C1 0.171963 0.834302 0.41122  -0.10399974359
 C1 0.171956 0.834299 0.91122  -0.10399974359
 C1 0.6723 0.334397 0.41134  -0.10399974359
 C1 0.672295 0.334394 0.91134  -0.10399974359
 C1 0.672298 0.834394 0.41134  -0.10399974359
 C1 0.672294 0.83439 0.91134  -0.10399974359
 C2 0.148916 0.320362 0.47145  -0.0382764102564
 C2 0.148914 0.32036 0.97145  -0.0382764102564
 C2 0.148903 0.820364 0.47144  -0.0382764102564
 C2 0.148899 0.82036 0.97144  -0.0382764102564
 C2 0.649625 0.320465 0.47170  -0.0382764102564
 C2 0.649621 0.320463 0.97170  -0.0382764102564
 C2 0.649611 0.820468 0.47169  -0.0382764102564
 C2 0.64961 0.820465 0.971  -0.0382764102564
 C1 0.200762 0.354908 0.03889  -0.10399974359
 C1 0.20076 0.354903 0.5388  -0.10399974359
 C1 0.200746 0.854906 0.03888  -0.10399974359
 C1 0.200751 0.854901 0.53888  -0.10399974359
 C1 0.701857 0.354961 0.03902  -0.10399974359
 C1 0.701861 0.354956 0.53902  -0.10399974359
 C1 0.701848 0.854961 0.03902  -0.10399974359
 C1 0.701846 0.854958 0.53902  -0.10399974359
 C2 0.280035 0.399758 0.04501  -0.0382764102564
 C2 0.280033 0.399755 0.54501  -0.0382764102564
 C2 0.280016 0.899761 0.04501  -0.0382764102564
 C2 0.280022 0.899755 0.54501  -0.0382764102564
 C2 0.781051 0.399801 0.04493  -0.0382764102564
 C2 0.781054 0.399797 0.54493  -0.0382764102564
 C2 0.781048 0.899795 0.04493  -0.0382764102564
 C2 0.781047 0.899791 0.54493  -0.0382764102564
 C2 0.302378 0.415223 0.48500  -0.0382764102564
 C2 0.302379 0.415218 0.98  -0.0382764102564
 C2 0.302373 0.915221 0.48500  -0.0382764102564
 C2 0.302365 0.91522 0.98499  -0.0382764102564
 C2 0.802971 0.415301 0.48480  -0.0382764102564
 C2 0.802969 0.415296 0.98480  -0.0382764102564
 C2 0.802975 0.91529 0.48480  -0.0382764102564
 C2 0.802972 0.915287 0.98480  -0.0382764102564
 C3 0.261172 0.41323 0.35530  0.682413589744
 C3 0.261169 0.413228 0.85530  0.682413589744
 C3 0.26117 0.913224 0.35530  0.682413589744
 C3 0.261164 0.913223 0.85530  0.682413589744
 C3 0.761216 0.413266 0.35516  0.682413589744
 C3 0.761212 0.413264 0.85516  0.682413589744
 C3 0.761219 0.913259 0.3551  0.682413589744
 C3 0.761214 0.913256 0.85516  0.682413589744
 C3 0.127841 0.288233 0.34040  0.682413589744
 C3 0.127837 0.28823 0.84040  0.682413589744
 C3 0.127841 0.788233 0.34040  0.682413589744
 C3 0.127838 0.788228 0.84040  0.682413589744
 C3 0.627928 0.288262 0.34060  0.682413589744
 C3 0.627924 0.28826 0.84060  0.682413589744
 C3 0.627929 0.788261 0.34060  0.682413589744
 C3 0.627925 0.788257 0.84060  0.682413589744
 C3 0.174451 0.339334 0.10320  0.682413589744
 C3 0.174453 0.339329 0.60319  0.682413589744
 C3 0.174439 0.839329 0.10319  0.682413589744
 C3 0.174441 0.839326 0.60319  0.682413589744
 C3 0.676126 0.339491 0.10355  0.682413589744
 C3 0.676128 0.339487 0.60355  0.682413589744
 C3 0.676108 0.839497 0.10355  0.682413589744
 C3 0.676105 0.839495 0.60355  0.682413589744
 C1 0.254272 0.114704 0.08133  -0.10399974359
 C1 0.254273 0.114698 0.58133  -0.10399974359
 C1 0.254277 0.614702 0.08133  -0.10399974359
 C1 0.254273 0.614698 0.58133  -0.10399974359
 C1 0.754213 0.114702 0.08122  -0.10399974359
 C1 0.754212 0.114698 0.58122  -0.10399974359
 C1 0.754206 0.614706 0.0812  -0.10399974359
 C1 0.754199 0.614702 0.58121  -0.10399974359
 C1 0.328748 0.165672 0.08822  -0.10399974359
 C1 0.328747 0.165669 0.58822  -0.10399974359
 C1 0.328746 0.665676 0.08822  -0.10399974359
 C1 0.328743 0.665671 0.58822  -0.10399974359
 C1 0.82865 0.165712 0.08815  -0.10399974359
 C1 0.82865 0.165706 0.58815  -0.10399974359
 C1 0.82864 0.665716 0.08814  -0.10399974359
 C1 0.828635 0.665713 0.58814  -0.10399974359
 C2 0.351881 0.179656 0.02803  -0.0382764102564
 C2 0.351884 0.179652 0.52803  -0.0382764102564
 C2 0.351883 0.679658 0.02803  -0.0382764102564
 C2 0.35188 0.679657 0.52803  -0.0382764102564
 C2 0.85185 0.17969 0.02798  -0.0382764102564
 C2 0.851852 0.179686 0.5279  -0.0382764102564
 C2 0.851843 0.679693 0.0279  -0.0382764102564
 C2 0.85184 0.679689 0.5279  -0.0382764102564
 C1 0.300057 0.145129 0.46059  -0.10399974359
 C1 0.300054 0.145126 0.96059  -0.10399974359
 C1 0.300057 0.64513 0.46059  -0.10399974359
 C1 0.300055 0.645129 0.9605  -0.10399974359
 C1 0.800071 0.145151 0.46053  -0.10399974359
 C1 0.800068 0.145148 0.96053  -0.10399974359
 C1 0.80006 0.645154 0.46052  -0.10399974359
 C1 0.800061 0.64515 0.96052  -0.10399974359
 C2 0.220773 0.10027 0.45438  -0.0382764102564
 C2 0.220766 0.100271 0.95438  -0.0382764102564
 C2 0.220774 0.600271 0.45438  -0.0382764102564
 C2 0.220776 0.600265 0.9543  -0.0382764102564
 C2 0.720817 0.100241 0.45428  -0.0382764102564
 C2 0.720816 0.100237 0.95428  -0.0382764102564
 C2 0.720807 0.600244 0.45427  -0.0382764102564
 C2 0.720808 0.60024 0.95427  -0.0382764102564
 C2 0.198355 0.084762 0.0143  -0.0382764102564
 C2 0.198359 0.084755 0.51433  -0.0382764102564
 C2 0.198363 0.584757 0.01433  -0.0382764102564
 C2 0.19836 0.584755 0.51433  -0.0382764102564
 C2 0.698353 0.084727 0.01422  -0.0382764102564
 C2 0.698355 0.084722 0.51422  -0.0382764102564
 C2 0.698344 0.584732 0.01421  -0.0382764102564
 C2 0.698341 0.584728 0.51421  -0.0382764102564
 C3 0.239108 0.086844 0.14395  0.682413589744
 C3 0.239109 0.086841 0.64395  0.682413589744
 C3 0.239112 0.586843 0.14395  0.682413589744
 C3 0.239106 0.586838 0.64394  0.682413589744
 C3 0.739076 0.086866 0.14385  0.682413589744
 C3 0.739075 0.086864 0.64386  0.682413589744
 C3 0.739066 0.586868 0.14385  0.682413589744
 C3 0.739063 0.586869 0.64385  0.682413589744
 C3 0.372637 0.211792 0.15906  0.682413589744
 C3 0.372636 0.211788 0.65906  0.682413589744
 C3 0.372638 0.711792 0.15906  0.682413589744
 C3 0.372633 0.711789 0.65906  0.682413589744
 C3 0.872517 0.211795 0.15901  0.682413589744
 C3 0.872514 0.211792 0.65901  0.682413589744
 C3 0.872515 0.711794 0.15900  0.682413589744
 C3 0.872511 0.711791 0.65900  0.682413589744
 C3 0.326103 0.160762 0.39624  0.682413589744
 C3 0.326101 0.160758 0.8962  0.682413589744
 C3 0.326105 0.660759 0.39624  0.682413589744
 C3 0.326105 0.660756 0.89623  0.682413589744
 C3 0.826173 0.160768 0.39620  0.682413589744
 C3 0.826173 0.160763 0.89619  0.682413589744
 C3 0.826171 0.660764 0.39619  0.682413589744
 C3 0.826175 0.660759 0.89619  0.682413589744
 O1 0.341165 0.396885 0.33418  -0.612471410256
 O1 0.341163 0.396883 0.83418  -0.612471410256
 O1 0.341166 0.896884 0.33418  -0.612471410256
 O1 0.34116 0.896883 0.8341  -0.612471410256
 O1 0.841217 0.39696 0.33402  -0.612471410256
 O1 0.841214 0.396957 0.83402  -0.612471410256
 O1 0.84122 0.896957 0.33402  -0.612471410256
 O1 0.841216 0.896954 0.83402  -0.612471410256
 O1 0.192604 0.45926 0.32818  -0.612471410256
 O1 0.192599 0.459256 0.8281  -0.612471410256
 O1 0.192599 0.959253 0.32817  -0.612471410256
 O1 0.192593 0.959251 0.82817  -0.612471410256
 O1 0.692636 0.459269 0.32804  -0.612471410256
 O1 0.692631 0.459265 0.82804  -0.612471410256
 O1 0.692636 0.959259 0.3280  -0.612471410256
 O1 0.69263 0.959256 0.82804  -0.612471410256
 O1 0.17965 0.283401 0.29437  -0.612471410256
 O1 0.179645 0.283398 0.79437  -0.612471410256
 O1 0.179659 0.783396 0.29437  -0.612471410256
 O1 0.179654 0.783393 0.79437  -0.612471410256
 O1 0.679516 0.283406 0.2944  -0.612471410256
 O1 0.679512 0.283402 0.7944  -0.612471410256
 O1 0.679524 0.7834 0.29442  -0.612471410256
 O1 0.679519 0.783396 0.79442  -0.612471410256
 O1 0.049983 0.253116 0.3283  -0.612471410256
 O1 0.049981 0.253112 0.82839  -0.612471410256
 O1 0.049983 0.753115 0.32837  -0.612471410256
 O1 0.049978 0.753111 0.82837  -0.612471410256
 O1 0.550111 0.253173 0.32885  -0.612471410256
 O1 0.550109 0.253168 0.82885  -0.612471410256
 O1 0.550111 0.753171 0.32884  -0.612471410256
 O1 0.550107 0.753167 0.82884  -0.612471410256
 O1 0.121537 0.280283 0.09104  -0.612471410256
 O1 0.121534 0.28028 0.59104  -0.612471410256
 O1 0.121524 0.780279 0.09103  -0.612471410256
 O1 0.121525 0.780276 0.59103  -0.612471410256
 O1 0.622224 0.281058 0.09157  -0.612471410256
 O1 0.622232 0.28105 0.59157  -0.612471410256
 O1 0.622185 0.781076 0.09157  -0.612471410256
 O1 0.622178 0.781076 0.59156  -0.612471410256
 O1 0.204567 0.380178 0.16374  -0.612471410256
 O1 0.204564 0.380176 0.66374  -0.612471410256
 O1 0.20456 0.88017 0.16374  -0.612471410256
 O1 0.204562 0.880168 0.66374  -0.612471410256
 O1 0.70778 0.379918 0.16405  -0.612471410256
 O1 0.70778 0.379915 0.66405  -0.612471410256
 O1 0.707785 0.879911 0.16405  -0.612471410256
 O1 0.707782 0.879908 0.66405  -0.612471410256
 O1 0.158856 0.103164 0.16469  -0.612471410256
 O1 0.158856 0.10316 0.664  -0.612471410256
 O1 0.158857 0.603161 0.16469  -0.612471410256
 O1 0.158853 0.603159 0.66469  -0.612471410256
 O1 0.658806 0.103149 0.16458  -0.612471410256
 O1 0.658804 0.103144 0.66458  -0.612471410256
 O1 0.658796 0.603152 0.16457  -0.612471410256
 O1 0.658791 0.603148 0.66457  -0.612471410256
 O1 0.307609 0.040904 0.17129  -0.612471410256
 O1 0.307607 0.040899 0.67129  -0.612471410256
 O1 0.307609 0.5409 0.17129  -0.612471410256
 O1 0.307604 0.540898 0.67129  -0.612471410256
 O1 0.807677 0.041024 0.17122  -0.612471410256
 O1 0.807675 0.041019 0.67122  -0.612471410256
 O1 0.807667 0.541026 0.17121  -0.612471410256
 O1 0.807661 0.541023 0.67121  -0.612471410256
 O1 0.320656 0.216609 0.20499  -0.612471410256
 O1 0.320653 0.216605 0.70499  -0.612471410256
 O1 0.320658 0.716605 0.20499  -0.612471410256
 O1 0.320653 0.716601 0.70499  -0.612471410256
 O1 0.820603 0.216525 0.20497  -0.612471410256
 O1 0.8206 0.216521 0.70497  -0.612471410256
 O1 0.820605 0.716523 0.20496  -0.612471410256
 O1 0.820601 0.71652 0.70496  -0.612471410256
 O1 0.450538 0.246912 0.17123  -0.612471410256
 O1 0.450537 0.24691 0.67123  -0.612471410256
 O1 0.450536 0.746915 0.17123  -0.612471410256
 O1 0.450532 0.746912 0.67123  -0.612471410256
 O1 0.950354 0.246979 0.17116  -0.612471410256
 O1 0.950354 0.246974 0.67116  -0.612471410256
 O1 0.950351 0.746978 0.17114  -0.612471410256
 O1 0.950347 0.746975 0.67114  -0.612471410256
 O1 0.378965 0.219827 0.4083  -0.612471410256
 O1 0.378963 0.219824 0.90831  -0.612471410256
 O1 0.378968 0.719824 0.40831  -0.612471410256
 O1 0.378968 0.71982 0.90831  -0.612471410256
 O1 0.878992 0.219857 0.40827  -0.612471410256
 O1 0.87899 0.219854 0.90827  -0.612471410256
 O1 0.878993 0.719851 0.40826  -0.612471410256
 O1 0.878992 0.719849 0.90826  -0.612471410256
 O1 0.295737 0.119892 0.33574  -0.612471410256
 O1 0.295736 0.119889 0.83574  -0.612471410256
 O1 0.29574 0.619887 0.33574  -0.612471410256
 O1 0.295739 0.619884 0.83574  -0.612471410256
 O1 0.795829 0.119882 0.3357  -0.612471410256
 O1 0.795827 0.11988 0.83570  -0.612471410256
 O1 0.79583 0.619876 0.33570  -0.612471410256
 O1 0.795829 0.619874 0.835  -0.612471410256
