#======================================================================

# CRYSTAL DATA

#----------------------------------------------------------------------

data_VESTA_phase_1


_pd_phase_name                         MOF
_cell_length_a                         14.35700
_cell_length_b                         15.24300
_cell_length_c                         16.40500
_cell_angle_alpha                      89.99700
_cell_angle_beta                       90.00400
_cell_angle_gamma                      97.44900
_symmetry_space_group_name_H-M         "P 1"
_symmetry_Int_Tables_number            1

loop_
_symmetry_equiv_pos_as_xyz
   "x, y, z"

loop_
   _atom_site_label
   _atom_site_fract_x
   _atom_site_fract_y
   _atom_site_fract_z
 _atom_site_charge
 Zn1 0.097805 0.662418 0.49335  1.14602591837
 Zn1 0.59772 0.66241 0.493  1.14602591837
 Zn1 0.093494 0.47796 0.37500  1.14602591837
 Zn1 0.593554 0.477942 0.37499  1.14602591837
 Zn1 0.152449 0.837689 0.99328  1.14602591837
 Zn1 0.652454 0.837626 0.99332  1.14602591837
 Zn1 0.156641 0.022152 0.87503  1.14602591837
 Zn1 0.656694 0.02212 0.87502  1.14602591837
 Zn1 0.402287 0.337586 0.50659  1.14602591837
 Zn1 0.902201 0.337576 0.50664  1.14602591837
 Zn1 0.406453 0.522053 0.62500  1.14602591837
 Zn1 0.906517 0.522039 0.62499  1.14602591837
 Zn1 0.34756 0.162377 0.00666  1.14602591837
 Zn1 0.84756 0.16231 0.00671  1.14602591837
 Zn1 0.343316 0.977876 0.12496  1.14602591837
 Zn1 0.843369 0.977843 0.12495  1.14602591837
 Zn2 0.249982 0.500001 0.50000  1.12253591837
 Zn2 0.750026 0.499996 0.49999  1.12253591837
 Zn2 0.0 1e-06 0.99999  1.12253591837
 Zn2 0.500004 1e-06 0.99999  1.12253591837
 H1 0.419576 0.498684 0.46392  0.440035918367
 H1 0.9196 0.498653 0.46390  0.440035918367
 H2 0.204773 0.665695 0.20730  0.112730918367
 H2 0.705006 0.665501 0.20733  0.112730918367
 H2 0.050512 0.736244 0.22519  0.112730918367
 H2 0.550372 0.735816 0.225  0.112730918367
 H1 0.330296 0.0013 0.96395  0.440035918367
 H1 0.830317 0.001244 0.96392  0.440035918367
 H2 0.04552 0.834665 0.70727  0.112730918367
 H2 0.545387 0.835279 0.70696  0.112730918367
 H2 0.199964 0.763918 0.72535  0.112730918367
 H2 0.700003 0.763935 0.72530  0.112730918367
 H1 0.080408 0.501341 0.5360  0.440035918367
 H1 0.580431 0.501314 0.53607  0.440035918367
 H2 0.295003 0.3345 0.7926  0.112730918367
 H2 0.795241 0.334331 0.79270  0.112730918367
 H2 0.449645 0.264179 0.7748  0.112730918367
 H2 0.949498 0.263746 0.77480  0.112730918367
 H1 0.169693 0.998758 0.03606  0.440035918367
 H1 0.669715 0.998709 0.03604  0.440035918367
 H2 0.454618 0.164712 0.29303  0.112730918367
 H2 0.954492 0.165324 0.29272  0.112730918367
 H2 0.300005 0.236081 0.27468  0.112730918367
 H2 0.800041 0.23608 0.27464  0.112730918367
 C1 0.426734 0.664872 0.28006  -0.0980390816327
 C1 0.927 0.665145 0.28016  -0.0980390816327
 C1 0.328092 0.643911 0.27374  -0.0980390816327
 C1 0.828356 0.644012 0.27385  -0.0980390816327
 C2 0.280527 0.683087 0.21206  -0.0342340816327
 C2 0.780741 0.683012 0.21210  -0.0342340816327
 C1 0.327626 0.744034 0.15789  -0.0980390816327
 C1 0.82772 0.74397 0.1578  -0.0980390816327
 C1 0.425928 0.761879 0.16149  -0.0980390816327
 C1 0.92601 0.761983 0.16148  -0.0980390816327
 C2 0.474112 0.721846 0.22240  -0.0342340816327
 C2 0.974267 0.72215 0.22247  -0.0342340816327
 C3 0.486724 0.625337 0.34230  0.724028418367
 C3 0.987147 0.625641 0.34228  0.724028418367
 C3 0.268609 0.586553 0.33347  0.724028418367
 C3 0.768826 0.586658 0.33357  0.724028418367
 C3 0.269418 0.785012 0.09673  0.724028418367
 C3 0.769375 0.784816 0.09674  0.724028418367
 C3 0.479483 0.819238 0.09833  0.724028418367
 C3 0.97956 0.81928 0.09829  0.724028418367
 C1 0.323465 0.835386 0.7800  -0.0980390816327
 C1 0.823547 0.835223 0.78008  -0.0980390816327
 C1 0.422065 0.856706 0.77355  -0.0980390816327
 C1 0.922165 0.856407 0.77367  -0.0980390816327
 C2 0.469677 0.817622 0.71187  -0.0342340816327
 C2 0.969784 0.817189 0.71207  -0.0342340816327
 C1 0.422707 0.756355 0.65788  -0.0980390816327
 C1 0.922768 0.756036 0.65802  -0.0980390816327
 C1 0.324433 0.738119 0.6616  -0.0980390816327
 C1 0.824474 0.73801 0.66167  -0.0980390816327
 C2 0.276199 0.778134 0.72253  -0.0342340816327
 C2 0.776251 0.778042 0.72254  -0.0342340816327
 C3 0.263397 0.874948 0.84217  0.724028418367
 C3 0.763512 0.87482 0.84223  0.724028418367
 C3 0.48148 0.914109 0.83329  0.724028418367
 C3 0.981538 0.913935 0.83334  0.724028418367
 C3 0.481041 0.715385 0.59686  0.724028418367
 C3 0.981059 0.715068 0.59694  0.724028418367
 C3 0.27074 0.680598 0.59864  0.724028418367
 C3 0.77081 0.680565 0.59860  0.724028418367
 C1 0.073006 0.334849 0.71982  -0.0980390816327
 C1 0.573282 0.335135 0.7199  -0.0980390816327
 C1 0.17165 0.355984 0.72614  -0.0980390816327
 C1 0.671922 0.356104 0.72625  -0.0980390816327
 C2 0.219267 0.316986 0.7878  -0.0342340816327
 C2 0.719488 0.316931 0.78793  -0.0342340816327
 C1 0.172292 0.256027 0.84211  -0.0980390816327
 C1 0.67239 0.255979 0.84210  -0.0980390816327
 C1 0.074002 0.238011 0.83850  -0.0980390816327
 C1 0.574089 0.238123 0.83849  -0.0980390816327
 C2 0.025743 0.277842 0.77752  -0.0342340816327
 C2 0.525905 0.278156 0.77758  -0.0342340816327
 C3 0.012857 0.374352 0.65771  0.724028418367
 C3 0.513293 0.374668 0.65769  0.724028418367
 C3 0.23118 0.413336 0.66642  0.724028418367
 C3 0.731403 0.413461 0.66653  0.724028418367
 C3 0.230644 0.215186 0.90324  0.724028418367
 C3 0.7306 0.215002 0.90326  0.724028418367
 C3 0.020452 0.180712 0.90170  0.724028418367
 C3 0.520528 0.180753 0.90164  0.724028418367
 C1 0.176464 0.164786 0.21990  -0.0980390816327
 C1 0.676543 0.164611 0.21995  -0.0980390816327
 C1 0.077846 0.143594 0.22632  -0.0980390816327
 C1 0.577943 0.143286 0.22644  -0.0980390816327
 C2 0.030227 0.182805 0.28791  -0.0342340816327
 C2 0.530328 0.18237 0.28812  -0.0342340816327
 C1 0.07724 0.24396 0.34197  -0.0980390816327
 C1 0.577295 0.243639 0.34210  -0.0980390816327
 C1 0.175534 0.261992 0.33832  -0.0980390816327
 C1 0.675569 0.261876 0.33833  -0.0980390816327
 C2 0.223758 0.221968 0.27744  -0.0342340816327
 C2 0.723806 0.221863 0.27745  -0.0342340816327
 C3 0.236507 0.125198 0.15775  0.724028418367
 C3 0.736613 0.125053 0.15781  0.724028418367
 C3 0.018474 0.086061 0.1666  0.724028418367
 C3 0.518534 0.085877 0.16670  0.724028418367
 C3 0.01895 0.284929 0.40305  0.724028418367
 C3 0.518961 0.284609 0.40313  0.724028418367
 C3 0.229199 0.319436 0.40138  0.724028418367
 C3 0.729262 0.319396 0.4013  0.724028418367
 O1 0.47894 0.541182 0.3474  -0.611782653061
 O1 0.979135 0.541492 0.34750  -0.611782653061
 O1 0.045307 0.680318 0.38172  -0.611782653061
 O1 0.544526 0.680095 0.38198  -0.611782653061
 O1 0.190554 0.546862 0.30603  -0.611782653061
 O1 0.690679 0.547102 0.30616  -0.611782653061
 O1 0.297694 0.585475 0.40628  -0.611782653061
 O1 0.797942 0.585487 0.40636  -0.611782653061
 O1 0.255408 0.867127 0.10450  -0.611782653061
 O1 0.755608 0.867025 0.10432  -0.611782653061
 O1 0.22843 0.738627 0.04104  -0.611782653061
 O1 0.728035 0.738282 0.04132  -0.611782653061
 O1 0.044244 0.785557 0.06189  -0.611782653061
 O1 0.54418 0.785557 0.06192  -0.611782653061
 O1 0.455667 0.895865 0.08546  -0.611782653061
 O1 0.955761 0.895901 0.08538  -0.611782653061
 O2 0.386795 0.467691 0.51032  -0.644754081633
 O2 0.886839 0.467668 0.51031  -0.644754081633
 O1 0.271522 0.959103 0.84748  -0.611782653061
 O1 0.77156 0.958973 0.84747  -0.611782653061
 O1 0.20517 0.820332 0.88159  -0.611782653061
 O1 0.705389 0.82018 0.88173  -0.611782653061
 O1 0.059349 0.954126 0.8058  -0.611782653061
 O1 0.559329 0.95427 0.8058  -0.611782653061
 O1 0.452576 0.914684 0.90617  -0.611782653061
 O1 0.952595 0.914634 0.90620  -0.611782653061
 O1 0.494149 0.632979 0.6041  -0.611782653061
 O1 0.994512 0.632781 0.60439  -0.611782653061
 O1 0.022595 0.761618 0.54160  -0.611782653061
 O1 0.522928 0.761992 0.54172  -0.611782653061
 O1 0.206395 0.714445 0.56189  -0.611782653061
 O1 0.706393 0.714365 0.56191  -0.611782653061
 O1 0.293942 0.603635 0.58628  -0.611782653061
 O1 0.794162 0.603675 0.5861  -0.611782653061
 O2 0.363097 0.032261 0.0103  -0.644754081633
 O2 0.863084 0.032212 0.01035  -0.644754081633
 O1 0.020872 0.458502 0.65249  -0.611782653061
 O1 0.521076 0.458822 0.65257  -0.611782653061
 O1 0.455492 0.319909 0.61801  -0.611782653061
 O1 0.954691 0.319677 0.61827  -0.611782653061
 O1 0.309328 0.452892 0.6938  -0.611782653061
 O1 0.809452 0.453164 0.69396  -0.611782653061
 O1 0.202065 0.414506 0.59363  -0.611782653061
 O1 0.702323 0.414525 0.59371  -0.611782653061
 O1 0.244398 0.132973 0.89568  -0.611782653061
 O1 0.744588 0.13288 0.89550  -0.611782653061
 O1 0.272002 0.261727 0.95865  -0.611782653061
 O1 0.77161 0.261394 0.95893  -0.611782653061
 O1 0.455853 0.214442 0.93808  -0.611782653061
 O1 0.955775 0.214438 0.93810  -0.611782653061
 O1 0.044242 0.104086 0.91459  -0.611782653061
 O1 0.544312 0.104107 0.9144  -0.611782653061
 O2 0.113169 0.532327 0.48967  -0.644754081633
 O2 0.613212 0.532305 0.48967  -0.644754081633
 O1 0.228472 0.041046 0.15252  -0.611782653061
 O1 0.728495 0.040899 0.15251  -0.611782653061
 O1 0.294622 0.179845 0.11825  -0.611782653061
 O1 0.794834 0.179672 0.11840  -0.611782653061
 O1 0.440695 0.045698 0.19414  -0.611782653061
 O1 0.940665 0.045868 0.19412  -0.611782653061
 O1 0.047417 0.08536 0.09379  -0.611782653061
 O1 0.547431 0.085311 0.09382  -0.611782653061
 O1 0.005504 0.367217 0.39560  -0.611782653061
 O1 0.505853 0.367015 0.39583  -0.611782653061
 O1 0.477076 0.238002 0.45826  -0.611782653061
 O1 0.97741 0.23838 0.4583  -0.611782653061
 O1 0.293609 0.285632 0.43808  -0.611782653061
 O1 0.793609 0.285551 0.43809  -0.611782653061
 O1 0.205856 0.396331 0.41385  -0.611782653061
 O1 0.706059 0.396359 0.41371  -0.611782653061
 O2 0.136925 0.967787 0.98964  -0.644754081633
 O2 0.636913 0.967745 0.98962  -0.644754081633
