#======================================================================

# CRYSTAL DATA

#----------------------------------------------------------------------

data_VESTA_phase_1


_pd_phase_name                         MOF
_cell_length_a                         18.57700
_cell_length_b                         18.58300
_cell_length_c                         18.58300
_cell_angle_alpha                      90.00100
_cell_angle_beta                       90.00000
_cell_angle_gamma                      90.00000
_symmetry_space_group_name_H-M         "P 1"
_symmetry_Int_Tables_number            1

loop_
_symmetry_equiv_pos_as_xyz
   "x, y, z"

loop_
   _atom_site_label
   _atom_site_fract_x
   _atom_site_fract_y
   _atom_site_fract_z
 _atom_site_charge
 Ni1 3e-06 0.624317 0.50001  0.259768849206
 Ni1 1.4e-05 0.375635 0.49997  0.259768849206
 Ni1 0.500021 2e-05 0.62435  0.259768849206
 Ni1 0.500024 0.999974 0.37558  0.259768849206
 Ni1 0.624357 0.499961 0.99998  0.259768849206
 Ni1 0.375667 0.500015 8e-0  0.259768849206
 Ni1 0.624325 0.999975 0.49997  0.259768849206
 Ni1 0.375729 1.1e-05 0.49999  0.259768849206
 Ni1 2e-05 0.499967 0.37573  0.259768849206
 Ni1 1.3e-05 0.499992 0.62424  0.259768849206
 Ni1 0.500005 0.624326 8e-0  0.259768849206
 Ni1 0.499996 0.375671 0.99998  0.259768849206
 H1 0.868769 0.719313 0.55501  0.105962599206
 H1 0.131153 0.28059 0.55505  0.105962599206
 H1 0.131183 0.719343 0.44497  0.105962599206
 H1 0.868786 0.280644 0.44495  0.105962599206
 H1 0.554986 0.868816 0.71932  0.105962599206
 H1 0.555058 0.131104 0.28057  0.105962599206
 H1 0.444989 0.131193 0.7193  0.105962599206
 H1 0.444942 0.868847 0.28059  0.105962599206
 H1 0.719329 0.554993 0.86873  0.105962599206
 H1 0.280741 0.554948 0.13131  0.105962599206
 H1 0.719337 0.444972 0.13122  0.105962599206
 H1 0.280708 0.445073 0.86867  0.105962599206
 H1 0.719231 0.868618 0.4450  0.105962599206
 H1 0.280782 0.131298 0.44503  0.105962599206
 H1 0.719353 0.131226 0.55498  0.105962599206
 H1 0.280783 0.868682 0.55493  0.105962599206
 H1 0.868693 0.554896 0.28079  0.105962599206
 H1 0.131248 0.554996 0.71928  0.105962599206
 H1 0.131289 0.44501 0.28073  0.105962599206
 H1 0.86874 0.445034 0.71921  0.105962599206
 H1 0.555026 0.719289 0.13116  0.105962599206
 H1 0.554916 0.280744 0.86868  0.105962599206
 H1 0.444943 0.719409 0.86888  0.105962599206
 H1 0.445051 0.280719 0.13122  0.105962599206
 H1 0.13123 0.280645 0.4449  0.105962599206
 H1 0.868818 0.719331 0.44495  0.105962599206
 H1 0.868815 0.280624 0.55502  0.105962599206
 H1 0.131203 0.719338 0.55502  0.105962599206
 H1 0.444959 0.1311 0.28056  0.105962599206
 H1 0.444887 0.868963 0.7194  0.105962599206
 H1 0.555058 0.86884 0.28057  0.105962599206
 H1 0.555042 0.131167 0.71932  0.105962599206
 H1 0.280646 0.444962 0.13121  0.105962599206
 H1 0.719345 0.444966 0.86875  0.105962599206
 H1 0.280708 0.554995 0.86871  0.105962599206
 H1 0.719333 0.554946 0.13124  0.105962599206
 H1 0.280759 0.131306 0.55495  0.105962599206
 H1 0.719293 0.868697 0.55498  0.105962599206
 H1 0.280759 0.868703 0.44506  0.105962599206
 H1 0.719213 0.131347 0.44507  0.105962599206
 H1 0.131273 0.445044 0.71920  0.105962599206
 H1 0.868784 0.444965 0.28068  0.105962599206
 H1 0.868752 0.554984 0.71928  0.105962599206
 H1 0.131251 0.554971 0.28074  0.105962599206
 H1 0.444893 0.28061 0.86891  0.105962599206
 H1 0.444971 0.719368 0.13117  0.105962599206
 H1 0.555027 0.280633 0.13113  0.105962599206
 H1 0.554955 0.719269 0.86877  0.105962599206
 H1 0.771802 0.771798 0.60829  0.105962599206
 H1 0.228189 0.228184 0.60828  0.105962599206
 H1 0.228181 0.771804 0.39172  0.105962599206
 H1 0.771784 0.228201 0.39171  0.105962599206
 H1 0.60823 0.771802 0.77181  0.105962599206
 H1 0.608215 0.2282 0.2281  0.105962599206
 H1 0.39176 0.228222 0.77181  0.105962599206
 H1 0.391737 0.771821 0.22818  0.105962599206
 H1 0.771799 0.608274 0.771  0.105962599206
 H1 0.228175 0.608287 0.22820  0.105962599206
 H1 0.771832 0.391678 0.2281  0.105962599206
 H1 0.228133 0.391692 0.77181  0.105962599206
 H1 0.771789 0.771758 0.39171  0.105962599206
 H1 0.228214 0.228173 0.39170  0.105962599206
 H1 0.771852 0.228167 0.60828  0.105962599206
 H1 0.228157 0.771852 0.60832  0.105962599206
 H1 0.771823 0.608237 0.22819  0.105962599206
 H1 0.228208 0.608282 0.77178  0.105962599206
 H1 0.2282 0.391699 0.22819  0.105962599206
 H1 0.771794 0.391733 0.77175  0.105962599206
 H1 0.608259 0.771769 0.22815  0.105962599206
 H1 0.608257 0.228174 0.77178  0.105962599206
 H1 0.391748 0.771837 0.7718  0.105962599206
 H1 0.391761 0.228162 0.22814  0.105962599206
 C1 0.877873 0.673053 0.58912  -0.0203617757937
 C1 0.122086 0.326885 0.58912  -0.0203617757937
 C1 0.1221 0.673067 0.41088  -0.0203617757937
 C1 0.877884 0.326908 0.41085  -0.0203617757937
 C1 0.589109 0.877899 0.67306  -0.0203617757937
 C1 0.589142 0.12205 0.32687  -0.0203617757937
 C1 0.410897 0.122114 0.67308  -0.0203617757937
 C1 0.410865 0.877909 0.32689  -0.0203617757937
 C1 0.673063 0.589106 0.87786  -0.0203617757937
 C1 0.326978 0.589095 0.12217  -0.0203617757937
 C1 0.673076 0.410852 0.12210  -0.0203617757937
 C1 0.32693 0.410915 0.87785  -0.0203617757937
 C1 0.67302 0.877797 0.4108  -0.0203617757937
 C1 0.327006 0.122137 0.41087  -0.0203617757937
 C1 0.673093 0.122106 0.58910  -0.0203617757937
 C1 0.326991 0.877863 0.58911  -0.0203617757937
 C1 0.877849 0.589051 0.32700  -0.0203617757937
 C1 0.122141 0.589112 0.67303  -0.0203617757937
 C1 0.122168 0.41088 0.32697  -0.0203617757937
 C1 0.877869 0.410894 0.67298  -0.0203617757937
 C1 0.589139 0.673021 0.1220  -0.0203617757937
 C1 0.589071 0.326968 0.87782  -0.0203617757937
 C1 0.410855 0.673118 0.8779  -0.0203617757937
 C1 0.410915 0.326963 0.12211  -0.0203617757937
 C1 0.122131 0.326907 0.41086  -0.0203617757937
 C1 0.877888 0.67304 0.41087  -0.0203617757937
 C1 0.877899 0.326906 0.58910  -0.0203617757937
 C1 0.122106 0.673075 0.58913  -0.0203617757937
 C1 0.410884 0.12205 0.32686  -0.0203617757937
 C1 0.410836 0.877983 0.67315  -0.0203617757937
 C1 0.589144 0.877893 0.32686  -0.0203617757937
 C1 0.589157 0.122073 0.67305  -0.0203617757937
 C1 0.326925 0.410861 0.12210  -0.0203617757937
 C1 0.673062 0.410866 0.87784  -0.0203617757937
 C1 0.326948 0.589137 0.87786  -0.0203617757937
 C1 0.673084 0.589077 0.12210  -0.0203617757937
 C1 0.326995 0.122162 0.589  -0.0203617757937
 C1 0.673042 0.877841 0.58911  -0.0203617757937
 C1 0.326987 0.877852 0.41090  -0.0203617757937
 C1 0.673005 0.122162 0.41089  -0.0203617757937
 C1 0.122134 0.410891 0.67298  -0.0203617757937
 C1 0.877895 0.410849 0.32693  -0.0203617757937
 C1 0.877866 0.589102 0.67303  -0.0203617757937
 C1 0.122129 0.5891 0.32698  -0.0203617757937
 C1 0.410821 0.326919 0.87794  -0.0203617757937
 C1 0.410869 0.673092 0.1220  -0.0203617757937
 C1 0.589141 0.326897 0.12204  -0.0203617757937
 C1 0.589091 0.673024 0.87788  -0.0203617757937
 C2 0.780012 0.686812 0.68682  0.011908015873
 C2 0.842248 0.652497 0.65250  0.011908015873
 C2 0.219954 0.313159 0.68682  0.011908015873
 C2 0.157724 0.347469 0.65249  0.011908015873
 C2 0.219965 0.686824 0.31318  0.011908015873
 C2 0.157729 0.652509 0.34750  0.011908015873
 C2 0.780017 0.313164 0.31316  0.011908015873
 C2 0.842266 0.347463 0.3474  0.011908015873
 C2 0.686792 0.780013 0.68682  0.011908015873
 C2 0.652487 0.842243 0.65250  0.011908015873
 C2 0.68678 0.219984 0.31317  0.011908015873
 C2 0.652477 0.157749 0.34748  0.011908015873
 C2 0.313194 0.21998 0.6868  0.011908015873
 C2 0.347522 0.157763 0.65250  0.011908015873
 C2 0.313178 0.780031 0.31317  0.011908015873
 C2 0.347495 0.842258 0.3474  0.011908015873
 C2 0.68679 0.686811 0.7800  0.011908015873
 C2 0.652486 0.652484 0.84224  0.011908015873
 C2 0.313183 0.686827 0.21998  0.011908015873
 C2 0.347502 0.652509 0.15775  0.011908015873
 C2 0.686804 0.31316 0.21995  0.011908015873
 C2 0.652512 0.347465 0.15771  0.011908015873
 C2 0.313162 0.313174 0.78003  0.011908015873
 C2 0.347459 0.3475 0.84227  0.011908015873
 C2 0.686804 0.77998 0.31315  0.011908015873
 C2 0.652495 0.842212 0.34746  0.011908015873
 C2 0.313211 0.21995 0.31314  0.011908015873
 C2 0.347517 0.157712 0.34745  0.011908015873
 C2 0.686833 0.219955 0.68680  0.011908015873
 C2 0.65254 0.157715 0.65249  0.011908015873
 C2 0.313176 0.780063 0.68685  0.011908015873
 C2 0.347486 0.8423 0.65254  0.011908015873
 C2 0.780017 0.686775 0.31318  0.011908015873
 C2 0.842244 0.652458 0.34751  0.011908015873
 C2 0.219976 0.686839 0.68682  0.011908015873
 C2 0.157746 0.652515 0.65250  0.011908015873
 C2 0.219999 0.313157 0.3131  0.011908015873
 C2 0.157769 0.347473 0.34749  0.011908015873
 C2 0.780034 0.313172 0.686  0.011908015873
 C2 0.842269 0.347482 0.65247  0.011908015873
 C2 0.686822 0.686781 0.21995  0.011908015873
 C2 0.652526 0.652464 0.15772  0.011908015873
 C2 0.686798 0.313181 0.77998  0.011908015873
 C2 0.652477 0.347504 0.84220  0.011908015873
 C2 0.313188 0.686847 0.78003  0.011908015873
 C2 0.347488 0.652539 0.84227  0.011908015873
 C2 0.313204 0.313158 0.21995  0.011908015873
 C2 0.347504 0.347487 0.15772  0.011908015873
 C3 0.748596 0.7486 0.65685  -0.223982400794
 C3 0.251386 0.251381 0.65685  -0.223982400794
 C3 0.251381 0.748612 0.34315  -0.223982400794
 C3 0.748586 0.251393 0.34314  -0.223982400794
 C3 0.656811 0.748604 0.74861  -0.223982400794
 C3 0.656806 0.251387 0.25138  -0.223982400794
 C3 0.343165 0.251399 0.7486  -0.223982400794
 C3 0.343157 0.748621 0.25138  -0.223982400794
 C3 0.748595 0.656843 0.74860  -0.223982400794
 C3 0.251381 0.656854 0.25139  -0.223982400794
 C3 0.748612 0.343125 0.25136  -0.223982400794
 C3 0.251355 0.343133 0.7486  -0.223982400794
 C3 0.748597 0.748563 0.34314  -0.223982400794
 C3 0.251416 0.251368 0.34313  -0.223982400794
 C3 0.748636 0.25137 0.65684  -0.223982400794
 C3 0.251376 0.748644 0.65687  -0.223982400794
 C3 0.748614 0.656804 0.25138  -0.223982400794
 C3 0.251398 0.656864 0.74860  -0.223982400794
 C3 0.251408 0.343131 0.25138  -0.223982400794
 C3 0.748603 0.343154 0.74857  -0.223982400794
 C3 0.656837 0.748572 0.2513  -0.223982400794
 C3 0.656837 0.251376 0.74858  -0.223982400794
 C3 0.343162 0.748643 0.74863  -0.223982400794
 C3 0.343183 0.251363 0.25135  -0.223982400794
 N1 0.930007 0.625091 0.57318  -0.103441150794
 N1 0.069969 0.374857 0.57316  -0.103441150794
 N1 0.069978 0.625095 0.42683  -0.103441150794
 N1 0.930033 0.374858 0.42678  -0.103441150794
 N1 0.573191 0.930021 0.62510  -0.103441150794
 N1 0.573216 0.069921 0.37482  -0.103441150794
 N1 0.426842 0.069994 0.62512  -0.103441150794
 N1 0.426815 0.930029 0.37484  -0.103441150794
 N1 0.625121 0.57318 0.93001  -0.103441150794
 N1 0.374914 0.573199 0.06999  -0.103441150794
 N1 0.625146 0.426757 0.06993  -0.103441150794
 N1 0.374883 0.42684 0.93000  -0.103441150794
 N1 0.625083 0.92997 0.42678  -0.103441150794
 N1 0.374957 0.06998 0.42678  -0.103441150794
 N1 0.625143 0.06995 0.57318  -0.103441150794
 N1 0.374934 0.930031 0.57321  -0.103441150794
 N1 0.929986 0.573127 0.37497  -0.103441150794
 N1 0.069991 0.57319 0.62507  -0.103441150794
 N1 0.070016 0.426795 0.37492  -0.103441150794
 N1 0.930008 0.426811 0.62501  -0.103441150794
 N1 0.573226 0.625075 0.06994  -0.103441150794
 N1 0.573164 0.37491 0.92996  -0.103441150794
 N1 0.42678 0.625163 0.93006  -0.103441150794
 N1 0.42682 0.374909 0.06997  -0.103441150794
 N1 0.070006 0.374876 0.42681  -0.103441150794
 N1 0.930022 0.625081 0.42682  -0.103441150794
 N1 0.93002 0.374875 0.57314  -0.103441150794
 N1 0.069984 0.625103 0.57318  -0.103441150794
 N1 0.426824 0.069931 0.37482  -0.103441150794
 N1 0.426789 0.930089 0.62518  -0.103441150794
 N1 0.573213 0.930013 0.37482  -0.103441150794
 N1 0.57323 0.069951 0.62509  -0.103441150794
 N1 0.374885 0.426802 0.06996  -0.103441150794
 N1 0.625118 0.426782 0.93000  -0.103441150794
 N1 0.374892 0.573226 0.9300  -0.103441150794
 N1 0.625125 0.573147 0.06996  -0.103441150794
 N1 0.374949 0.070004 0.57319  -0.103441150794
 N1 0.625103 0.930003 0.57318  -0.103441150794
 N1 0.374942 0.930011 0.42680  -0.103441150794
 N1 0.625091 0.06996 0.42677  -0.103441150794
 N1 0.070009 0.426816 0.62501  -0.103441150794
 N1 0.930029 0.426776 0.37490  -0.103441150794
 N1 0.930004 0.573174 0.62507  -0.103441150794
 N1 0.069998 0.573165 0.37495  -0.103441150794
 N1 0.426752 0.374883 0.93006  -0.103441150794
 N1 0.426818 0.625122 0.06998  -0.103441150794
 N1 0.573224 0.374854 0.06991  -0.103441150794
 N1 0.573183 0.625069 0.93001  -0.103441150794
