#======================================================================

# CRYSTAL DATA

#----------------------------------------------------------------------

data_VESTA_phase_1


_pd_phase_name                         MOF
_cell_length_a                         14.53000
_cell_length_b                         15.86100
_cell_length_c                         16.41100
_cell_angle_alpha                      89.99900
_cell_angle_beta                       89.99800
_cell_angle_gamma                      89.99900
_symmetry_space_group_name_H-M         "P 1"
_symmetry_Int_Tables_number            1

loop_
_symmetry_equiv_pos_as_xyz
   "x, y, z"

loop_
   _atom_site_label
   _atom_site_fract_x
   _atom_site_fract_y
   _atom_site_fract_z
 _atom_site_charge
 Cd1 0.357729 0.061523 0.22199  1.033026
 Cd2 0.122276 0.976423 0.31419  1.058786
 Cd1 0.142293 0.938353 0.72198  1.033026
 Cd2 0.377676 0.023622 0.81415  1.058786
 Cd1 0.642306 0.561515 0.27799  1.033026
 Cd2 0.877765 0.476432 0.18579  1.058786
 Cd1 0.857761 0.438359 0.77798  1.033026
 Cd2 0.622364 0.523617 0.68581  1.058786
 Cd1 0.642318 0.938465 0.77798  1.033026
 Cd2 0.877762 0.023587 0.68579  1.058786
 Cd1 0.857746 0.061655 0.27799  1.033026
 Cd2 0.622371 0.976365 0.18582  1.058786
 Cd1 0.357732 0.438474 0.72199  1.033026
 Cd2 0.12228 0.523578 0.81418  1.058786
 Cd1 0.142286 0.561648 0.22199  1.033026
 Cd2 0.377675 0.476369 0.31417  1.058786
 Cd3 0.0 0.999999 0.  1.225456
 Cd3 0.500018 2e-06 0.4999  1.225456
 Cd3 6e-06 0.499997 0.49999  1.225456
 Cd3 0.500018 0.5 2e-0  1.225456
 H1 0.450465 0.080247 0.02031  0.072741
 H1 0.279484 0.258407 0.30307  0.072741
 H2 0.628195 0.278153 0.17766  0.375566
 H1 0.049579 0.919492 0.52028  0.072741
 H1 0.220382 0.741518 0.80324  0.072741
 H2 0.871765 0.721793 0.67769  0.375566
 H1 0.549574 0.58026 0.47967  0.072741
 H1 0.720563 0.758402 0.19693  0.072741
 H2 0.371837 0.778153 0.32232  0.375566
 H1 0.950458 0.41946 0.97969  0.072741
 H1 0.779678 0.241542 0.69672  0.072741
 H2 0.128297 0.221791 0.82227  0.375566
 H1 0.549592 0.91971 0.97966  0.072741
 H1 0.72056 0.741576 0.69690  0.072741
 H2 0.371845 0.721839 0.82231  0.375566
 H1 0.950448 0.08055 0.47970  0.072741
 H1 0.779655 0.258497 0.19674  0.072741
 H2 0.128274 0.278212 0.32228  0.375566
 H1 0.450458 0.4197 0.52030  0.072741
 H1 0.279488 0.241587 0.80306  0.072741
 H2 0.628204 0.221839 0.67765  0.375566
 H1 0.049598 0.580585 0.0202  0.072741
 H1 0.220358 0.758467 0.30328  0.072741
 H2 0.871751 0.778214 0.17770  0.375566
 C1 0.172997 0.999173 0.12066  0.649656
 C2 0.244252 0.016035 0.05792  -0.0136265
 C3 0.380547 0.056182 0.01829  0.315276
 C2 0.250951 0.0 0.97279  -0.0136265
 C1 0.190653 0.970596 0.90791  0.649656
 C3 0.348467 0.264194 0.27883  0.315276
 C2 0.478484 0.231669 0.22183  -0.0136265
 C1 0.554314 0.380381 0.23753  0.649656
 C2 0.480589 0.316898 0.24432  -0.0136265
 C1 0.548343 0.177706 0.18442  0.649656
 C1 0.326981 0.000752 0.62063  0.649656
 C2 0.255759 0.983779 0.55790  -0.0136265
 C3 0.119484 0.943589 0.51826  0.315276
 C2 0.249055 0.994705 0.47280  -0.0136265
 C1 0.309341 0.029307 0.40792  0.649656
 C3 0.151414 0.735743 0.77896  0.315276
 C2 0.021427 0.768271 0.72191  -0.0136265
 C1 0.94564 0.619555 0.73758  0.649656
 C2 0.019324 0.683038 0.74438  -0.0136265
 C1 0.951638 0.822224 0.68444  0.649656
 C1 0.827044 0.499173 0.37932  0.649656
 C2 0.755784 0.516035 0.44206  -0.0136265
 C3 0.61949 0.556188 0.481  0.315276
 C2 0.749097 0.505155 0.52717  -0.0136265
 C1 0.809397 0.470598 0.59205  0.649656
 C3 0.651577 0.76419 0.22117  0.315276
 C2 0.521553 0.731666 0.27816  -0.0136265
 C1 0.445726 0.880382 0.26245  0.649656
 C2 0.519452 0.816897 0.25567  -0.0136265
 C1 0.451689 0.677704 0.31556  0.649656
 C1 0.673056 0.500741 0.87933  0.649656
 C2 0.744285 0.483772 0.94206  -0.0136265
 C3 0.880556 0.443566 0.98170  0.315276
 C2 0.750978 0.49469 0.02718  -0.0136265
 C1 0.690695 0.529304 0.09205  0.649656
 C3 0.848644 0.235758 0.72100  0.315276
 C2 0.978633 0.268274 0.77805  -0.0136265
 C1 0.054412 0.119554 0.76238  0.649656
 C2 0.980729 0.18304 0.75559  -0.0136265
 C1 0.048422 0.322222 0.81552  0.649656
 C1 0.827045 0.00082 0.87931  0.649656
 C2 0.755795 0.983947 0.94205  -0.0136265
 C3 0.619506 0.943784 0.98169  0.315276
 C2 0.749095 0.994828 0.02718  -0.0136265
 C1 0.80939 0.029397 0.09206  0.649656
 C3 0.651576 0.735792 0.72114  0.315276
 C2 0.52156 0.76832 0.77814  -0.0136265
 C1 0.445725 0.61961 0.76244  0.649656
 C2 0.519453 0.683091 0.75565  -0.0136265
 C1 0.451701 0.822284 0.81555  0.649656
 C1 0.673062 0.999249 0.37934  0.649656
 C2 0.744279 0.016234 0.44207  -0.0136265
 C3 0.880547 0.056442 0.48171  0.315276
 C2 0.750984 0.0 0.52718  -0.0136265
 C1 0.690701 0.970696 0.59205  0.649656
 C3 0.848624 0.264268 0.22101  0.315276
 C2 0.97861 0.231735 0.27806  -0.0136265
 C1 0.054403 0.380449 0.26239  0.649656
 C2 0.980717 0.316968 0.25559  -0.0136265
 C1 0.048398 0.177781 0.31553  0.649656
 C1 0.173 0.50082 0.62065  0.649656
 C2 0.244257 0.483946 0.55792  -0.0136265
 C3 0.380546 0.44378 0.51828  0.315276
 C2 0.250945 0.494827 0.4728  -0.0136265
 C1 0.190648 0.529392 0.4079  0.649656
 C3 0.348471 0.235799 0.77882  0.315276
 C2 0.47849 0.268324 0.72182  -0.0136265
 C1 0.554318 0.119609 0.73752  0.649656
 C2 0.480593 0.183094 0.74431  -0.0136265
 C1 0.548349 0.322287 0.68442  0.649656
 C1 0.326985 0.499262 0.12065  0.649656
 C2 0.25576 0.516244 0.05792  -0.0136265
 C3 0.119497 0.556468 0.01827  0.315276
 C2 0.249066 0.505326 0.97279  -0.0136265
 C1 0.309345 0.470701 0.90792  0.649656
 C3 0.151394 0.764249 0.27899  0.315276
 C2 0.021412 0.731731 0.22193  -0.0136265
 C1 0.94563 0.88045 0.23759  0.649656
 C2 0.019313 0.816965 0.24439  -0.0136265
 C1 0.951627 0.677783 0.18445  0.649656
 N1 0.327387 0.047843 0.08479  -0.4332965
 N1 0.337993 0.031187 0.94968  -0.4332965
 N1 0.394243 0.199418 0.2445  -0.4332965
 N1 0.397958 0.336226 0.28012  -0.4332965
 N1 0.172645 0.951917 0.58477  -0.4332965
 N1 0.162025 0.968648 0.44969  -0.4332965
 N1 0.10566 0.800519 0.74466  -0.4332965
 N1 0.101924 0.663713 0.78022  -0.4332965
 N1 0.672648 0.547845 0.41519  -0.4332965
 N1 0.662048 0.531187 0.55028  -0.4332965
 N1 0.605796 0.699414 0.25544  -0.4332965
 N1 0.602087 0.836224 0.21988  -0.4332965
 N1 0.827396 0.451898 0.91519  -0.4332965
 N1 0.838013 0.46863 0.050  -0.4332965
 N1 0.894402 0.300529 0.75530  -0.4332965
 N1 0.898129 0.163723 0.71974  -0.4332965
 N1 0.672663 0.952129 0.91518  -0.4332965
 N1 0.662057 0.968787 0.05029  -0.4332965
 N1 0.605802 0.800569 0.75542  -0.4332965
 N1 0.602083 0.663761 0.71985  -0.4332965
 N1 0.827389 0.048108 0.41520  -0.4332965
 N1 0.838009 0.031376 0.55029  -0.4332965
 N1 0.894376 0.19949 0.2553  -0.4332965
 N1 0.898117 0.336296 0.21975  -0.4332965
 N1 0.327389 0.452128 0.58479  -0.4332965
 N1 0.337991 0.468787 0.44970  -0.4332965
 N1 0.394249 0.300576 0.74455  -0.4332965
 N1 0.397961 0.163765 0.78010  -0.4332965
 N1 0.172654 0.54813 0.08478  -0.4332965
 N1 0.162035 0.531396 0.94968  -0.4332965
 N1 0.105641 0.699477 0.24469  -0.4332965
 N1 0.101908 0.836283 0.2802  -0.4332965
 O1 0.198905 0.010911 0.19443  -0.574184
 O1 0.091816 0.974358 0.10414  -0.574184
 O2 0.229484 0.958673 0.83887  -0.629894
 O1 0.105891 0.952413 0.9173  -0.574184
 O3 0.628889 0.361987 0.20088  -0.456764
 O1 0.531126 0.100789 0.17358  -0.574184
 O3 0.627129 0.211141 0.16307  -0.456764
 O1 0.538935 0.452024 0.27098  -0.574184
 O1 0.301076 0.989048 0.69441  -0.574184
 O1 0.408141 0.025616 0.60410  -0.574184
 O2 0.270506 0.041267 0.33889  -0.629894
 O1 0.394101 0.047499 0.41733  -0.574184
 O3 0.87109 0.637933 0.70089  -0.456764
 O1 0.968892 0.89913 0.67356  -0.574184
 O3 0.872837 0.788807 0.66310  -0.456764
 O1 0.961067 0.547897 0.77098  -0.574184
 O1 0.801131 0.510911 0.30555  -0.574184
 O1 0.908228 0.474365 0.39584  -0.574184
 O2 0.770567 0.458674 0.66109  -0.629894
 O1 0.894158 0.452412 0.58264  -0.574184
 O3 0.371148 0.861988 0.29910  -0.456764
 O1 0.468908 0.600786 0.32640  -0.574184
 O3 0.372902 0.711139 0.33691  -0.456764
 O1 0.461108 0.952023 0.22900  -0.574184
 O1 0.698974 0.489052 0.80555  -0.574184
 O1 0.591898 0.525612 0.89585  -0.574184
 O2 0.72953 0.541264 0.1610  -0.629894
 O1 0.605934 0.547498 0.0826  -0.574184
 O3 0.128963 0.137926 0.79907  -0.456764
 O1 0.031165 0.399127 0.82641  -0.574184
 O3 0.127228 0.288804 0.83686  -0.456764
 O1 0.038977 0.047897 0.72899  -0.574184
 O1 0.801136 0.989087 0.80554  -0.574184
 O1 0.908225 0.025639 0.89583  -0.574184
 O2 0.770556 0.041323 0.16110  -0.629894
 O1 0.89415 0.047583 0.08264  -0.574184
 O3 0.371151 0.638005 0.79909  -0.456764
 O1 0.46892 0.899201 0.82639  -0.574184
 O3 0.372914 0.788852 0.83690  -0.456764
 O1 0.461104 0.547967 0.72899  -0.574184
 O1 0.698968 0.01095 0.30556  -0.574184
 O1 0.591904 0.974382 0.39587  -0.574184
 O2 0.729539 0.958731 0.66108  -0.629894
 O1 0.605943 0.952498 0.58264  -0.574184
 O3 0.128953 0.362068 0.29908  -0.456764
 O1 0.031143 0.100875 0.32641  -0.574184
 O3 0.127199 0.211196 0.33687  -0.456764
 O1 0.038978 0.452107 0.22899  -0.574184
 O1 0.198913 0.489086 0.69442  -0.574184
 O1 0.091818 0.525633 0.60413  -0.574184
 O2 0.229481 0.54132 0.3388  -0.629894
 O1 0.105887 0.547582 0.41734  -0.574184
 O3 0.628895 0.138003 0.70087  -0.456764
 O1 0.53113 0.399204 0.67357  -0.574184
 O3 0.627136 0.288852 0.66306  -0.456764
 O1 0.538938 0.047967 0.77097  -0.574184
 O1 0.301067 0.510945 0.19442  -0.574184
 O1 0.40814 0.474385 0.10412  -0.574184
 O2 0.270506 0.458735 0.83889  -0.629894
 O1 0.394104 0.452505 0.91733  -0.574184
 O3 0.871081 0.862076 0.20090  -0.456764
 O1 0.968885 0.600878 0.17357  -0.574184
 O3 0.872824 0.711201 0.16311  -0.456764
 O1 0.961061 0.952108 0.27099  -0.574184
