#======================================================================

# CRYSTAL DATA

#----------------------------------------------------------------------

data_VESTA_phase_1


_pd_phase_name                         MOF
_cell_length_a                         12.48900
_cell_length_b                         15.68200
_cell_length_c                         15.68700
_cell_angle_alpha                      120.01000
_cell_angle_beta                       90.01100
_cell_angle_gamma                      89.90800
_symmetry_space_group_name_H-M         "P 1"
_symmetry_Int_Tables_number            1

loop_
_symmetry_equiv_pos_as_xyz
   "x, y, z"

loop_
   _atom_site_label
   _atom_site_fract_x
   _atom_site_fract_y
   _atom_site_fract_z
 _atom_site_charge
 Zn1 0.425615 0.499587 0.49995  0.843786666667
 Zn1 0.925607 0.499586 0.49995  0.843786666667
 Zn1 0.092235 0.99993 0.49975  0.843786666667
 Zn1 0.592227 0.999929 0.49975  0.843786666667
 Zn1 0.25868 0.500226 0.00029  0.843786666667
 Zn1 0.758672 0.500226 0.00029  0.843786666667
 H1 0.093993 0.725183 0.60384  0.101565
 H1 0.593981 0.725175 0.60382  0.101565
 H1 0.209526 0.589075 0.59240  0.101565
 H1 0.709521 0.589077 0.59240  0.101565
 H1 0.454915 0.660655 0.46004  0.101565
 H1 0.95491 0.660654 0.46004  0.101565
 H1 0.350858 0.801761 0.47127  0.101565
 H1 0.850846 0.80175 0.47126  0.101565
 H1 0.260737 0.879054 0.27481  0.101565
 H1 0.760729 0.879055 0.27481  0.101565
 H1 0.376267 0.0 0.41054  0.101565
 H1 0.876258 0.0 0.41054  0.101565
 H1 0.121509 0.798802 0.33882  0.101565
 H1 0.621501 0.798801 0.33882  0.101565
 H1 0.01742 0.669075 0.19811  0.101565
 H1 0.517411 0.669073 0.19811  0.101565
 H1 0.427003 0.396159 0.12123  0.101565
 H1 0.926993 0.396163 0.12123  0.101565
 H1 0.042266 0.407944 0.99687  0.101565
 H1 0.542257 0.407946 0.99687  0.101565
 H1 0.287615 0.539855 0.20098  0.101565
 H1 0.787607 0.539854 0.20098  0.101565
 H1 0.183795 0.52828 0.33054  0.101565
 H1 0.683791 0.528272 0.33054  0.101565
 H1 0.094204 0.274815 0.39587  0.101565
 H1 0.594193 0.27482 0.39588  0.101565
 H1 0.209756 0.410586 0.40731  0.101565
 H1 0.709751 0.410583 0.40731  0.101565
 H1 0.454597 0.338806 0.54035  0.101565
 H1 0.954591 0.338806 0.54035  0.101565
 H1 0.350507 0.198003 0.52913  0.101565
 H1 0.850495 0.198011 0.52915  0.101565
 H1 0.260829 0.121422 0.72526  0.101565
 H1 0.760823 0.121419 0.72526  0.101565
 H1 0.376352 0.996819 0.58916  0.101565
 H1 0.876342 0.996819 0.58916  0.101565
 H1 0.121429 0.200952 0.66088  0.101565
 H1 0.621422 0.200952 0.6608  0.101565
 H1 0.01739 0.330751 0.80199  0.101565
 H1 0.517378 0.330754 0.80198  0.101565
 H1 0.42668 0.603932 0.87882  0.101565
 H1 0.926671 0.603928 0.87882  0.101565
 H1 0.041942 0.592519 0.  0.101565
 H1 0.541933 0.592518 0.  0.101565
 H1 0.288041 0.460669 0.79970  0.101565
 H1 0.788033 0.460671 0.79970  0.101565
 H1 0.184195 0.471806 0.66985  0.101565
 H1 0.684189 0.471812 0.66985  0.101565
 C1 0.144068 0.853166 0.53873  0.622553333333
 C1 0.644057 0.853157 0.53872  0.622553333333
 C2 0.213092 0.77307 0.53691  -0.0154766666667
 C2 0.713079 0.77306 0.536  -0.0154766666667
 C3 0.173839 0.712745 0.57193  -0.135048333333
 C3 0.673833 0.712743 0.5719  -0.135048333333
 C4 0.237482 0.63696 0.5653  0.169421666667
 C4 0.737472 0.636953 0.5653  0.169421666667
 C4 0.374704 0.677281 0.49137  0.169421666667
 C4 0.874693 0.677275 0.49136  0.169421666667
 C3 0.316293 0.755229 0.49713  -0.135048333333
 C3 0.816285 0.755228 0.49713  -0.135048333333
 C1 0.310724 0.685671 0.14697  0.622553333333
 C1 0.810717 0.685672 0.14697  0.622553333333
 C2 0.379733 0.763825 0.22687  -0.0154766666667
 C2 0.879726 0.763826 0.22687  -0.0154766666667
 C3 0.340546 0.859353 0.28713  -0.135048333333
 C3 0.840537 0.859353 0.28713  -0.135048333333
 C4 0.40419 0.928447 0.36272  0.169421666667
 C4 0.904182 0.928449 0.36272  0.169421666667
 C4 0.04132 0.813718 0.32233  0.169421666667
 C4 0.541311 0.813715 0.32233  0.169421666667
 C3 0.482886 0.741618 0.24458  -0.135048333333
 C3 0.982878 0.741619 0.24458  -0.135048333333
 C1 0.477235 0.460832 0.31429  0.622553333333
 C1 0.977225 0.460835 0.31429  0.622553333333
 C2 0.046094 0.462818 0.2361  -0.0154766666667
 C2 0.546089 0.462812 0.23612  -0.0154766666667
 C3 0.006794 0.42804 0.14082  -0.135048333333
 C3 0.506784 0.428043 0.14082  -0.135048333333
 C4 0.070311 0.434806 0.07176  0.169421666667
 C4 0.570304 0.434801 0.07176  0.169421666667
 C4 0.207478 0.508537 0.18616  0.169421666667
 C4 0.707473 0.508531 0.1861  0.169421666667
 C3 0.149195 0.502583 0.25818  -0.135048333333
 C3 0.649186 0.502585 0.25818  -0.135048333333
 C1 0.144081 0.146774 0.46115  0.622553333333
 C1 0.64407 0.146779 0.46116  0.622553333333
 C2 0.213036 0.226793 0.46310  -0.0154766666667
 C2 0.713023 0.2268 0.46311  -0.0154766666667
 C3 0.173928 0.287122 0.42793  -0.135048333333
 C3 0.673922 0.287122 0.42793  -0.135048333333
 C4 0.237585 0.362733 0.43452  0.169421666667
 C4 0.737576 0.362737 0.4345  0.169421666667
 C4 0.374495 0.322311 0.50888  0.169421666667
 C4 0.874485 0.322314 0.50889  0.169421666667
 C3 0.316066 0.244525 0.50312  -0.135048333333
 C3 0.816058 0.244524 0.50312  -0.135048333333
 C1 0.310692 0.314539 0.85332  0.622553333333
 C1 0.810686 0.314536 0.85332  0.622553333333
 C2 0.379755 0.236332 0.77322  -0.0154766666667
 C2 0.879749 0.236329 0.77323  -0.0154766666667
 C3 0.340603 0.140949 0.7128  -0.135048333333
 C3 0.840594 0.140949 0.7128  -0.135048333333
 C4 0.404228 0.071792 0.63706  0.169421666667
 C4 0.904221 0.07179 0.63706  0.169421666667
 C4 0.041279 0.186192 0.6774  0.169421666667
 C4 0.541269 0.186195 0.67746  0.169421666667
 C3 0.482866 0.25834 0.7554  -0.135048333333
 C3 0.982858 0.258339 0.7554  -0.135048333333
 C1 0.477243 0.538872 0.68573  0.622553333333
 C1 0.977234 0.53887 0.6857  0.622553333333
 C2 0.046126 0.537214 0.76407  -0.0154766666667
 C2 0.54612 0.537219 0.76407  -0.0154766666667
 C3 0.006635 0.57213 0.85937  -0.135048333333
 C3 0.506625 0.572128 0.85937  -0.135048333333
 C4 0.070166 0.565594 0.92858  0.169421666667
 C4 0.570159 0.565598 0.92858  0.169421666667
 C4 0.207744 0.491893 0.81438  0.169421666667
 C4 0.707737 0.491898 0.81438  0.169421666667
 C3 0.149444 0.497593 0.74220  -0.135048333333
 C3 0.649435 0.497593 0.74220  -0.135048333333
 N1 0.336197 0.618489 0.52431  -0.338766666667
 N1 0.836186 0.618481 0.52429  -0.338766666667
 N1 0.002865 0.905616 0.38107  -0.338766666667
 N1 0.502856 0.905613 0.38107  -0.338766666667
 N1 0.168954 0.475803 0.09446  -0.338766666667
 N1 0.668949 0.475796 0.09445  -0.338766666667
 N1 0.336154 0.381058 0.47573  -0.338766666667
 N1 0.836144 0.381063 0.47574  -0.338766666667
 N1 0.002851 0.094438 0.61862  -0.338766666667
 N1 0.50284 0.094441 0.6186  -0.338766666667
 N1 0.169023 0.524712 0.90606  -0.338766666667
 N1 0.669016 0.524718 0.90606  -0.338766666667
 O1 0.194618 0.913403 0.51844  -0.594396666667
 O1 0.69461 0.913403 0.51844  -0.594396666667
 O2 0.046366 0.855336 0.55530  -0.570813333333
 O2 0.546359 0.85534 0.55531  -0.570813333333
 O1 0.361269 0.604968 0.08665  -0.594396666667
 O1 0.86126 0.604968 0.08665  -0.594396666667
 O2 0.213033 0.700288 0.14492  -0.570813333333
 O2 0.713024 0.700287 0.14492  -0.570813333333
 O1 0.027909 0.480792 0.39471  -0.594396666667
 O1 0.527901 0.480795 0.39471  -0.594396666667
 O2 0.379535 0.444461 0.29992  -0.570813333333
 O2 0.879527 0.444457 0.29992  -0.570813333333
 O1 0.194671 0.086324 0.48128  -0.594396666667
 O1 0.694664 0.086323 0.48128  -0.594396666667
 O2 0.046394 0.144784 0.44459  -0.570813333333
 O2 0.546387 0.14478 0.44458  -0.570813333333
 O1 0.361167 0.395075 0.91371  -0.594396666667
 O1 0.861159 0.395075 0.9137  -0.594396666667
 O2 0.213031 0.300058 0.85541  -0.570813333333
 O2 0.713023 0.300059 0.85540  -0.570813333333
 O1 0.027939 0.51846 0.60517  -0.594396666667
 O1 0.527931 0.518459 0.6051  -0.594396666667
 O2 0.379513 0.555446 0.70010  -0.570813333333
 O2 0.879506 0.555449 0.70010  -0.570813333333
