#======================================================================

# CRYSTAL DATA

#----------------------------------------------------------------------

data_VESTA_phase_1


_pd_phase_name                         MOF
_cell_length_a                         12.51300
_cell_length_b                         14.76800
_cell_length_c                         14.75800
_cell_angle_alpha                      120.03900
_cell_angle_beta                       90.03500
_cell_angle_gamma                      90.04700
_symmetry_space_group_name_H-M         "P 1"
_symmetry_Int_Tables_number            1

loop_
_symmetry_equiv_pos_as_xyz
   "x, y, z"

loop_
   _atom_site_label
   _atom_site_fract_x
   _atom_site_fract_y
   _atom_site_fract_z
 _atom_site_charge
 In1 0.166647 0.499461 0.99971  1.44924464646
 In1 0.499644 0.500216 0.49948  1.44924464646
 In1 0.833292 0.000405 0.50042  1.44924464646
 H1 0.913078 0.659507 0.88255  0.117312563131
 H1 0.908253 0.322196 0.71498  0.117312563131
 H1 0.245486 0.222189 0.33971  0.117312563131
 H1 0.244462 0.392861 0.67734  0.117312563131
 H1 0.57989 0.115726 0.78108  0.117312563131
 H1 0.576955 0.282089 0.61028  0.117312563131
 H1 0.912724 0.340174 0.11775  0.117312563131
 H1 0.908863 0.677454 0.2837  0.117312563131
 H1 0.245169 0.777478 0.66029  0.117312563131
 H1 0.243129 0.607713 0.32264  0.117312563131
 H1 0.5799 0.88401 0.2193  0.117312563131
 H1 0.576965 0.717683 0.39023  0.117312563131
 H1 0.42 0.779895 0.11538  0.117312563131
 H1 0.422929 0.609969 0.28259  0.117312563131
 H1 0.086935 0.88267 0.66009  0.117312563131
 H1 0.090712 0.716506 0.32257  0.117312563131
 H1 0.753934 0.340058 0.22243  0.117312563131
 H1 0.755819 0.677438 0.39194  0.117312563131
 H1 0.419879 0.219296 0.88459  0.117312563131
 H1 0.422897 0.389324 0.7174  0.117312563131
 H1 0.086745 0.117592 0.34036  0.117312563131
 H1 0.091432 0.284769 0.67789  0.117312563131
 H1 0.754535 0.660337 0.7778  0.117312563131
 H1 0.755324 0.322935 0.60686  0.117312563131
 C1 0.877068 0.586857 0.82250  -0.0537453535354
 C2 0.920003 0.491082 0.80395  -0.0737836868687
 C1 0.875299 0.395726 0.7272  -0.0537453535354
 C3 0.011948 0.491117 0.86740  0.585594646465
 C1 0.210295 0.235178 0.41275  -0.0537453535354
 C2 0.254434 0.312389 0.50819  -0.0737836868687
 C1 0.210776 0.331576 0.60401  -0.0537453535354
 C3 0.346542 0.374914 0.50703  0.585594646465
 C1 0.543919 0.175272 0.76786  -0.0537453535354
 C2 0.587864 0.19374 0.69081  -0.0737836868687
 C1 0.543356 0.269906 0.6714  -0.0537453535354
 C3 0.680756 0.130759 0.62904  0.585594646465
 C1 0.876878 0.412987 0.1774  -0.0537453535354
 C2 0.920114 0.508556 0.19553  -0.0737836868687
 C1 0.875651 0.604094 0.27183  -0.0537453535354
 C3 0.011982 0.508256 0.13198  0.585594646465
 C1 0.209815 0.764773 0.58736  -0.0537453535354
 C2 0.253471 0.68765 0.49177  -0.0737836868687
 C1 0.209701 0.668886 0.39606  -0.0537453535354
 C3 0.345253 0.624706 0.49252  0.585594646465
 C1 0.543943 0.82436 0.23250  -0.0537453535354
 C2 0.587858 0.806049 0.30969  -0.0737836868687
 C1 0.543378 0.729763 0.32901  -0.0537453535354
 C3 0.680726 0.86932 0.37166  0.585594646465
 C1 0.455978 0.767001 0.17520  -0.0537453535354
 C2 0.412051 0.690065 0.1938  -0.0737836868687
 C1 0.456559 0.671032 0.27033  -0.0537453535354
 C3 0.319166 0.628036 0.13066  0.585594646465
 C1 0.122614 0.822785 0.58725  -0.0537453535354
 C2 0.079492 0.804716 0.49157  -0.0737836868687
 C1 0.123766 0.728239 0.39597  -0.0537453535354
 C3 0.987776 0.868316 0.49179  0.585594646465
 C1 0.789319 0.412938 0.23516  -0.0537453535354
 C2 0.745341 0.508448 0.31200  -0.0737836868687
 C1 0.789316 0.60404 0.33087  -0.0537453535354
 C3 0.653049 0.507642 0.3744  0.585594646465
 C1 0.455885 0.232336 0.82490  -0.0537453535354
 C2 0.411945 0.309162 0.80618  -0.0737836868687
 C1 0.456502 0.328369 0.7298  -0.0537453535354
 C3 0.319064 0.370976 0.86914  0.585594646465
 C1 0.12278 0.177503 0.41310  -0.0537453535354
 C2 0.079788 0.195982 0.50889  -0.0737836868687
 C1 0.124461 0.272602 0.60436  -0.0537453535354
 C3 0.987842 0.132545 0.50882  0.585594646465
 C1 0.789644 0.587292 0.76474  -0.0537453535354
 C2 0.745465 0.491976 0.68742  -0.0737836868687
 C1 0.789038 0.396181 0.66821  -0.0537453535354
 C3 0.65343 0.493176 0.62477  0.585594646465
 O1 0.06992 0.572699 0.91775  -0.500628270202
 O1 0.032691 0.409713 0.87384  -0.500628270202
 O1 0.402586 0.343893 0.42449  -0.500628270202
 O1 0.369513 0.462252 0.5887  -0.500628270202
 O1 0.736619 0.079678 0.66016  -0.500628270202
 O1 0.703925 0.126299 0.54206  -0.500628270202
 O1 0.069716 0.426622 0.08179  -0.500628270202
 O1 0.032852 0.589532 0.12530  -0.500628270202
 O1 0.402726 0.656029 0.57433  -0.500628270202
 O1 0.366418 0.536755 0.41099  -0.500628270202
 O1 0.736555 0.92052 0.34059  -0.500628270202
 O1 0.703937 0.873953 0.45871  -0.500628270202
 O1 0.263324 0.658889 0.07927  -0.500628270202
 O1 0.296014 0.541159 0.12630  -0.500628270202
 O1 0.930048 0.918456 0.57348  -0.500628270202
 O1 0.967077 0.874919 0.41041  -0.500628270202
 O1 0.597059 0.425056 0.34387  -0.500628270202
 O1 0.629888 0.589718 0.46131  -0.500628270202
 O1 0.263178 0.34006 0.9204  -0.500628270202
 O1 0.295971 0.457809 0.87342  -0.500628270202
 O1 0.92992 0.082258 0.42714  -0.500628270202
 O1 0.967153 0.126114 0.59029  -0.500628270202
 O1 0.597607 0.575716 0.65543  -0.500628270202
 O1 0.630348 0.411324 0.53757  -0.500628270202
