#======================================================================

# CRYSTAL DATA

#----------------------------------------------------------------------

data_VESTA_phase_1


_pd_phase_name                         MOF
_cell_length_a                         15.50300
_cell_length_b                         15.66600
_cell_length_c                         18.55900
_cell_angle_alpha                      90.00800
_cell_angle_beta                       90.00000
_cell_angle_gamma                      89.96200
_symmetry_space_group_name_H-M         "P 1"
_symmetry_Int_Tables_number            1

loop_
_symmetry_equiv_pos_as_xyz
   "x, y, z"

loop_
   _atom_site_label
   _atom_site_fract_x
   _atom_site_fract_y
   _atom_site_fract_z
 _atom_site_charge
 Zn1 0.796432 0.862568 0.59402  0.728440882353
 Zn1 0.489225 0.663278 0.686  0.728440882353
 Zn1 0.703555 0.137436 0.09401  0.728440882353
 Zn1 0.010785 0.336741 0.18687  0.728440882353
 Zn1 0.20348 0.362467 0.90593  0.728440882353
 Zn1 0.510844 0.163147 0.81310  0.728440882353
 Zn1 0.29656 0.637595 0.40593  0.728440882353
 Zn1 0.989144 0.836862 0.31312  0.728440882353
 Zn1 0.203556 0.137456 0.40595  0.728440882353
 Zn1 0.510763 0.336746 0.31307  0.728440882353
 Zn1 0.296432 0.862589 0.90596  0.728440882353
 Zn1 0.989203 0.663284 0.81310  0.728440882353
 Zn1 0.796508 0.637557 0.09404  0.728440882353
 Zn1 0.489145 0.836878 0.18687  0.728440882353
 Zn1 0.703428 0.362429 0.59404  0.728440882353
 Zn1 0.010844 0.163163 0.68685  0.728440882353
 H1 0.684382 0.714766 0.66154  0.0788512990196
 H1 0.602212 0.949914 0.57489  0.0788512990196
 H1 0.459383 0.857464 0.61924  0.0788512990196
 H1 0.950067 0.818077 0.48523  0.0788512990196
 H1 0.709428 0.934561 0.44575  0.0788512990196
 H1 0.799327 0.91982 0.31687  0.0788512990196
 H1 0.937367 0.015136 0.58446  0.0788512990196
 H1 0.763975 0.948605 0.75000  0.0788512990196
 H1 0.871317 0.079091 0.7980  0.0788512990196
 H1 0.92522 0.823723 0.72292  0.0788512990196
 H1 0.909057 0.561292 0.67420  0.0788512990196
 H1 0.81969 0.653721 0.57067  0.0788512990196
 H1 0.815654 0.285269 0.16148  0.0788512990196
 H1 0.897769 0.050033 0.07491  0.0788512990196
 H1 0.040623 0.142488 0.11923  0.0788512990196
 H1 0.54988 0.181785 0.98522  0.0788512990196
 H1 0.790627 0.065536 0.945  0.0788512990196
 H1 0.700739 0.080287 0.8168  0.0788512990196
 H1 0.562673 0.984842 0.08447  0.0788512990196
 H1 0.73597 0.051507 0.2500  0.0788512990196
 H1 0.628642 0.92102 0.29805  0.0788512990196
 H1 0.574716 0.176308 0.22286  0.0788512990196
 H1 0.590924 0.438735 0.17419  0.0788512990196
 H1 0.680318 0.346286 0.07066  0.0788512990196
 H1 0.315734 0.214546 0.83859  0.0788512990196
 H1 0.397516 0.449869 0.92500  0.0788512990196
 H1 0.5405 0.357383 0.88071  0.0788512990196
 H1 0.04986 0.317808 0.01472  0.0788512990196
 H1 0.290202 0.434609 0.05416  0.0788512990196
 H1 0.200348 0.419851 0.18305  0.0788512990196
 H1 0.062453 0.515083 0.9152  0.0788512990196
 H1 0.236285 0.448537 0.74999  0.0788512990196
 H1 0.12913 0.57931 0.70198  0.0788512990196
 H1 0.074675 0.323596 0.77702  0.0788512990196
 H1 0.091185 0.06117 0.82571  0.0788512990196
 H1 0.180511 0.153591 0.92921  0.0788512990196
 H1 0.184302 0.785539 0.338  0.0788512990196
 H1 0.102611 0.550211 0.42499  0.0788512990196
 H1 0.959587 0.642616 0.3806  0.0788512990196
 H1 0.450257 0.682089 0.51472  0.0788512990196
 H1 0.209755 0.565627 0.55415  0.0788512990196
 H1 0.299595 0.580378 0.68305  0.0788512990196
 H1 0.437534 0.484958 0.41526  0.0788512990196
 H1 0.263829 0.551627 0.24992  0.0788512990196
 H1 0.37093 0.420794 0.20191  0.0788512990196
 H1 0.425487 0.676471 0.2771  0.0788512990196
 H1 0.408782 0.938911 0.32575  0.0788512990196
 H1 0.319561 0.846475 0.4292  0.0788512990196
 H1 0.31561 0.285256 0.33842  0.0788512990196
 H1 0.39778 0.050108 0.42507  0.0788512990196
 H1 0.540609 0.142557 0.38072  0.0788512990196
 H1 0.049924 0.181944 0.51473  0.0788512990196
 H1 0.290565 0.065463 0.5542  0.0788512990196
 H1 0.200666 0.080204 0.683  0.0788512990196
 H1 0.062626 0.984885 0.41550  0.0788512990196
 H1 0.236016 0.051418 0.24996  0.0788512990196
 H1 0.128673 0.920932 0.20196  0.0788512990196
 H1 0.074773 0.176299 0.27704  0.0788512990196
 H1 0.090934 0.43873 0.32576  0.0788512990196
 H1 0.180301 0.346301 0.429  0.0788512990196
 H1 0.184338 0.714753 0.83848  0.0788512990196
 H1 0.102222 0.949989 0.92505  0.0788512990196
 H1 0.959368 0.857533 0.88073  0.0788512990196
 H1 0.450111 0.818235 0.01474  0.0788512990196
 H1 0.209365 0.934489 0.05427  0.0788512990196
 H1 0.299254 0.919739 0.18315  0.0788512990196
 H1 0.437319 0.01518 0.91549  0.0788512990196
 H1 0.264022 0.948515 0.74990  0.0788512990196
 H1 0.371349 0.079002 0.70191  0.0788512990196
 H1 0.425276 0.823714 0.77710  0.0788512990196
 H1 0.409066 0.561287 0.82578  0.0788512990196
 H1 0.319672 0.653736 0.92930  0.0788512990196
 H1 0.684257 0.785476 0.16137  0.0788512990196
 H1 0.602476 0.550153 0.0749  0.0788512990196
 H1 0.459491 0.642639 0.11925  0.0788512990196
 H1 0.950135 0.682207 0.98524  0.0788512990196
 H1 0.709782 0.565429 0.94580  0.0788512990196
 H1 0.799637 0.580186 0.81691  0.0788512990196
 H1 0.93754 0.484939 0.08468  0.0788512990196
 H1 0.763705 0.551485 0.24997  0.0788512990196
 H1 0.870859 0.420711 0.29798  0.0788512990196
 H1 0.925317 0.676427 0.22294  0.0788512990196
 H1 0.908807 0.938852 0.17426  0.0788512990196
 H1 0.81948 0.846431 0.07075  0.0788512990196
 H1 0.815689 0.214483 0.66137  0.0788512990196
 H1 0.89738 0.449811 0.5749  0.0788512990196
 H1 0.040405 0.357406 0.61929  0.0788512990196
 H1 0.549739 0.317926 0.48524  0.0788512990196
 H1 0.79023 0.43441 0.44582  0.0788512990196
 H1 0.700391 0.419658 0.31691  0.0788512990196
 H1 0.562458 0.515065 0.58470  0.0788512990196
 H1 0.736162 0.448396 0.7500  0.0788512990196
 H1 0.629059 0.579227 0.79806  0.0788512990196
 H1 0.574505 0.323551 0.72286  0.0788512990196
 H1 0.591209 0.061111 0.67421  0.0788512990196
 H1 0.680429 0.153547 0.57068  0.0788512990196
 C1 0.642574 0.766343 0.64410  0.230660882353
 C2 0.598393 0.887292 0.59960  -0.0296734926471
 C2 0.527403 0.841439 0.62165  -0.0296734926471
 C1 0.89728 0.84904 0.45704  0.230660882353
 C2 0.773237 0.909127 0.43503  -0.0296734926471
 C2 0.817766 0.902041 0.37118  -0.0296734926471
 C1 0.904614 0.014853 0.63614  0.230660882353
 C2 0.815942 0.981871 0.72276  -0.0296734926471
 C2 0.869202 0.046254 0.74658  -0.0296734926471
 C1 0.908843 0.764753 0.69548  0.230660882353
 C2 0.899419 0.629597 0.66893  -0.0296734926471
 C2 0.855087 0.675475 0.61762  -0.0296734926471
 C1 0.857449 0.233668 0.14405  0.230660882353
 C2 0.901601 0.112676 0.099  -0.0296734926471
 C2 0.972602 0.158531 0.1216  -0.0296734926471
 C1 0.6027 0.150886 0.9570  0.230660882353
 C2 0.726796 0.09092 0.93499  -0.0296734926471
 C2 0.682273 0.098016 0.87114  -0.0296734926471
 C1 0.595403 0.985158 0.13616  0.230660882353
 C2 0.684026 0.018213 0.22281  -0.0296734926471
 C2 0.630774 0.953827 0.24662  -0.0296734926471
 C1 0.591114 0.235274 0.19544  0.230660882353
 C2 0.600561 0.370429 0.16891  -0.0296734926471
 C2 0.644904 0.324541 0.11760  -0.0296734926471
 C1 0.357456 0.266169 0.85598  0.230660882353
 C2 0.401445 0.387205 0.90036  -0.0296734926471
 C2 0.472505 0.34134 0.87833  -0.0296734926471
 C1 0.102569 0.348856 0.04290  0.230660882353
 C2 0.226461 0.409107 0.06489  -0.0296734926471
 C2 0.181956 0.402009 0.12874  -0.0296734926471
 C1 0.095357 0.514838 0.86368  0.230660882353
 C2 0.184254 0.481842 0.77718  -0.0296734926471
 C2 0.131087 0.546378 0.75336  -0.0296734926471
 C1 0.09114 0.264629 0.80445  0.230660882353
 C2 0.100738 0.129475 0.83098  -0.0296734926471
 C2 0.145055 0.175352 0.88228  -0.0296734926471
 C1 0.142596 0.733905 0.35598  0.230660882353
 C2 0.098652 0.612863 0.40035  -0.0296734926471
 C2 0.027578 0.658692 0.3783  -0.0296734926471
 C1 0.3975 0.65113 0.54290  0.230660882353
 C2 0.273527 0.591055 0.56488  -0.0296734926471
 C2 0.318022 0.598151 0.62874  -0.0296734926471
 C1 0.404656 0.485225 0.36364  0.230660882353
 C2 0.315821 0.518282 0.27712  -0.0296734926471
 C2 0.368966 0.453721 0.25330  -0.0296734926471
 C1 0.408976 0.735439 0.30452  0.230660882353
 C2 0.399284 0.870601 0.33104  -0.0296734926471
 C2 0.355014 0.824716 0.38234  -0.0296734926471
 C1 0.357417 0.233678 0.3558  0.230660882353
 C2 0.401598 0.11273 0.40037  -0.0296734926471
 C2 0.472588 0.158582 0.37831  -0.0296734926471
 C1 0.10271 0.150983 0.54293  0.230660882353
 C2 0.226756 0.090896 0.5649  -0.0296734926471
 C2 0.182226 0.097983 0.62878  -0.0296734926471
 C1 0.095378 0.985169 0.3638  0.230660882353
 C2 0.184049 0.018152 0.27720  -0.0296734926471
 C2 0.13079 0.953768 0.25338  -0.0296734926471
 C1 0.091151 0.235269 0.30448  0.230660882353
 C2 0.100573 0.370425 0.33103  -0.0296734926471
 C2 0.144905 0.324547 0.38234  -0.0296734926471
 C1 0.142543 0.766354 0.85591  0.230660882353
 C2 0.098391 0.887346 0.90037  -0.0296734926471
 C2 0.02739 0.841491 0.87833  -0.0296734926471
 C1 0.397293 0.849135 0.04295  0.230660882353
 C2 0.273195 0.909104 0.06498  -0.0296734926471
 C2 0.317719 0.902009 0.12882  -0.0296734926471
 C1 0.404588 0.014863 0.8638  0.230660882353
 C2 0.315965 0.98181 0.77716  -0.0296734926471
 C2 0.369217 0.046195 0.75335  -0.0296734926471
 C1 0.408877 0.764749 0.8045  0.230660882353
 C2 0.399429 0.629593 0.83105  -0.0296734926471
 C2 0.355086 0.675482 0.88236  -0.0296734926471
 C1 0.642534 0.733854 0.14398  0.230660882353
 C2 0.598545 0.612817 0.0996  -0.0296734926471
 C2 0.527486 0.658683 0.1216  -0.0296734926471
 C1 0.897421 0.651165 0.95706  0.230660882353
 C2 0.773527 0.590926 0.93507  -0.0296734926471
 C2 0.81803 0.598023 0.87122  -0.0296734926471
 C1 0.904635 0.485185 0.13628  0.230660882353
 C2 0.815736 0.518179 0.22278  -0.0296734926471
 C2 0.868902 0.453643 0.24660  -0.0296734926471
 C1 0.908853 0.735393 0.19551  0.230660882353
 C2 0.899254 0.870547 0.16898  -0.0296734926471
 C2 0.854936 0.824671 0.11769  -0.0296734926471
 C1 0.857395 0.266117 0.6439  0.230660882353
 C2 0.901339 0.387159 0.59962  -0.0296734926471
 C2 0.972413 0.34133 0.62166  -0.0296734926471
 C1 0.602494 0.348891 0.45706  0.230660882353
 C2 0.72646 0.408977 0.43508  -0.0296734926471
 C2 0.681966 0.401881 0.3712  -0.0296734926471
 C1 0.595334 0.514798 0.63632  0.230660882353
 C2 0.68417 0.481741 0.72284  -0.0296734926471
 C2 0.631023 0.546302 0.74666  -0.0296734926471
 C1 0.591015 0.264582 0.69544  0.230660882353
 C2 0.600707 0.129421 0.66893  -0.0296734926471
 C2 0.644976 0.175305 0.61762  -0.0296734926471
 N1 0.555865 0.764578 0.64987  -0.386044117647
 N1 0.671496 0.839307 0.6139  -0.386044117647
 N1 0.896498 0.863908 0.38545  -0.386044117647
 N1 0.823959 0.875401 0.48949  -0.386044117647
 N1 0.925477 0.066959 0.69134  -0.386044117647
 N1 0.838637 0.962236 0.65249  -0.386044117647
 N1 0.933641 0.686714 0.71823  -0.386044117647
 N1 0.861221 0.76138 0.63474  -0.386044117647
 N1 0.944158 0.235422 0.14983  -0.386044117647
 N1 0.828506 0.160687 0.11393  -0.386044117647
 N1 0.603503 0.136073 0.88542  -0.386044117647
 N1 0.676034 0.124564 0.98946  -0.386044117647
 N1 0.574532 0.933077 0.19136  -0.386044117647
 N1 0.661359 0.037802 0.15252  -0.386044117647
 N1 0.566318 0.313319 0.21819  -0.386044117647
 N1 0.638754 0.238639 0.13470  -0.386044117647
 N1 0.444162 0.264426 0.85019  -0.386044117647
 N1 0.328424 0.339169 0.8860  -0.386044117647
 N1 0.103321 0.363774 0.11449  -0.386044117647
 N1 0.175821 0.375287 0.01045  -0.386044117647
 N1 0.074661 0.567076 0.80852  -0.386044117647
 N1 0.161355 0.462121 0.84739  -0.386044117647
 N1 0.06641 0.18659 0.78171  -0.386044117647
 N1 0.13881 0.261257 0.86517  -0.386044117647
 N1 0.05589 0.73561 0.35017  -0.386044117647
 N1 0.171651 0.660927 0.38606  -0.386044117647
 N1 0.39671 0.636274 0.61449  -0.386044117647
 N1 0.324225 0.624762 0.51043  -0.386044117647
 N1 0.425348 0.432983 0.30848  -0.386044117647
 N1 0.338694 0.537974 0.34734  -0.386044117647
 N1 0.433643 0.813484 0.28177  -0.386044117647
 N1 0.361312 0.738806 0.36525  -0.386044117647
 N1 0.444126 0.235444 0.35009  -0.386044117647
 N1 0.328494 0.160715 0.38601  -0.386044117647
 N1 0.103492 0.136114 0.61451  -0.386044117647
 N1 0.176031 0.124621 0.51048  -0.386044117647
 N1 0.074515 0.933063 0.3086  -0.386044117647
 N1 0.161355 0.037787 0.34748  -0.386044117647
 N1 0.066351 0.313308 0.28173  -0.386044117647
 N1 0.13877 0.238642 0.36522  -0.386044117647
 N1 0.055834 0.7646 0.8501  -0.386044117647
 N1 0.171486 0.839334 0.88603  -0.386044117647
 N1 0.396489 0.863951 0.11455  -0.386044117647
 N1 0.323959 0.875459 0.01050  -0.386044117647
 N1 0.42546 0.066945 0.80860  -0.386044117647
 N1 0.338633 0.962219 0.84744  -0.386044117647
 N1 0.433673 0.686705 0.78178  -0.386044117647
 N1 0.361236 0.761385 0.86526  -0.386044117647
 N1 0.555827 0.735598 0.14978  -0.386044117647
 N1 0.671565 0.660854 0.11390  -0.386044117647
 N1 0.896667 0.636251 0.8854  -0.386044117647
 N1 0.824168 0.624738 0.98952  -0.386044117647
 N1 0.925329 0.432947 0.19144  -0.386044117647
 N1 0.838636 0.537901 0.15258  -0.386044117647
 N1 0.933582 0.813433 0.21825  -0.386044117647
 N1 0.861181 0.738766 0.13479  -0.386044117647
 N1 0.944101 0.264412 0.64979  -0.386044117647
 N1 0.828339 0.339095 0.61390  -0.386044117647
 N1 0.603281 0.36375 0.38547  -0.386044117647
 N1 0.675766 0.375262 0.48953  -0.386044117647
 N1 0.574641 0.567041 0.69149  -0.386044117647
 N1 0.661297 0.46205 0.65262  -0.386044117647
 N1 0.566348 0.186537 0.71820  -0.386044117647
 N1 0.638678 0.261215 0.63471  -0.386044117647
