#======================================================================

# CRYSTAL DATA

#----------------------------------------------------------------------

data_VESTA_phase_1


_pd_phase_name                         MOF
_cell_length_a                         13.07000
_cell_length_b                         24.20900
_cell_length_c                         15.04200
_cell_angle_alpha                      90.03300
_cell_angle_beta                       90.13600
_cell_angle_gamma                      90.33600
_symmetry_space_group_name_H-M         "P 1"
_symmetry_Int_Tables_number            1

loop_
_symmetry_equiv_pos_as_xyz
   "x, y, z"

loop_
   _atom_site_label
   _atom_site_fract_x
   _atom_site_fract_y
   _atom_site_fract_z
 _atom_site_charge
 Zn1 0.843726 0.067357 0.51905  0.876670571429
 Zn2 0.73341 0.977116 0.60571  1.00925057143
 Zn1 0.155154 0.932822 0.  0.876670571429
 Zn2 0.262539 0.023304 0.10661  1.00925057143
 Zn1 0.653191 0.569173 0.52327  0.876670571429
 Zn2 0.760585 0.479208 0.61290  1.00925057143
 Zn1 0.342621 0.432959 0.  0.876670571429
 Zn2 0.235072 0.523021 0.11035  1.00925057143
 H1 0.914074 0.172904 0.73635  0.101037238095
 H1 0.986906 0.007241 0.82058  0.101037238095
 H1 0.084354 0.152518 0.96728  0.101037238095
 H1 0.086919 0.335167 0.97643  0.101037238095
 H1 0.996681 0.494598 0.87199  0.101037238095
 H1 0.879991 0.340647 0.76704  0.101037238095
 H1 0.083391 0.827573 0.23639  0.101037238095
 H1 0.008588 0.993279 0.31884  0.101037238095
 H1 0.911524 0.84824 0.46573  0.101037238095
 H1 0.909885 0.666084 0.47525  0.101037238095
 H1 0.998692 0.506132 0.37189  0.101037238095
 H1 0.116918 0.659552 0.26696  0.101037238095
 H1 0.585644 0.673683 0.74162  0.101037238095
 H1 0.511317 0.507996 0.82640  0.101037238095
 H1 0.413818 0.653231 0.9712  0.101037238095
 H1 0.412156 0.836408 0.97680  0.101037238095
 H1 0.501297 0.995317 0.86770  0.101037238095
 H1 0.618686 0.841069 0.76787  0.101037238095
 H1 0.414618 0.327715 0.23940  0.101037238095
 H1 0.482363 0.493546 0.3281  0.101037238095
 H1 0.583614 0.348385 0.47130  0.101037238095
 H1 0.588563 0.16469 0.47569  0.101037238095
 H1 0.495768 0.0 0.36809  0.101037238095
 H1 0.382227 0.160343 0.26568  0.101037238095
 Pt1 0.989838 0.250285 0.86598  0.190420571429
 Pt1 0.0 0.750393 0.36525  0.190420571429
 Pt1 0.508918 0.751128 0.86884  0.190420571429
 Pt1 0.491338 0.25023 0.36724  0.190420571429
 C1 0.947412 0.143916 0.78318  0.143343071429
 C2 0.942551 0.087066 0.76930  -0.187831928571
 C3 0.989452 0.05182 0.82966  0.0762355714286
 C2 0.04426 0.075265 0.90051  -0.187831928571
 C1 0.045173 0.132634 0.91185  0.143343071429
 C4 0.894571 0.067498 0.68505  0.688380571429
 C4 0.10406 0.038663 0.9609  0.688380571429
 C1 0.0432 0.360906 0.93126  0.143343071429
 C2 0.051362 0.418542 0.93249  -0.187831928571
 C3 0.99179 0.449651 0.87389  0.0762355714286
 C2 0.928381 0.421436 0.81370  -0.187831928571
 C1 0.925446 0.363797 0.81492  0.143343071429
 C4 0.134841 0.442014 0.98905  0.688380571429
 C4 0.869109 0.451411 0.74320  0.688380571429
 C1 0.049381 0.856601 0.28269  0.143343071429
 C2 0.053904 0.913408 0.26852  -0.187831928571
 C3 0.006256 0.948727 0.3281  0.0762355714286
 C2 0.951281 0.925393 0.39878  -0.187831928571
 C1 0.950725 0.868057 0.41045  0.143343071429
 C4 0.10287 0.932773 0.18485  0.688380571429
 C4 0.89174 0.962233 0.45891  0.688380571429
 C1 0.953465 0.640084 0.43050  0.143343071429
 C2 0.944752 0.582481 0.43203  -0.187831928571
 C3 0.0 0.551072 0.37375  0.0762355714286
 C2 0.067709 0.578979 0.31363  -0.187831928571
 C1 0.071248 0.636616 0.31471  0.143343071429
 C4 0.860658 0.559725 0.48851  0.688380571429
 C4 0.126455 0.548692 0.2431  0.688380571429
 C1 0.551759 0.644718 0.78838  0.143343071429
 C2 0.556411 0.587876 0.77502  -0.187831928571
 C3 0.508958 0.552581 0.83518  0.0762355714286
 C2 0.453925 0.575954 0.90541  -0.187831928571
 C1 0.453172 0.633357 0.91631  0.143343071429
 C4 0.605015 0.568217 0.69159  0.688380571429
 C4 0.393946 0.539049 0.96554  0.688380571429
 C1 0.45573 0.861995 0.93107  0.143343071429
 C2 0.447222 0.91957 0.9305  -0.187831928571
 C3 0.506514 0.950442 0.87110  0.0762355714286
 C2 0.570003 0.922017 0.81188  -0.187831928571
 C1 0.57327 0.864442 0.81494  0.143343071429
 C4 0.363341 0.942796 0.98622  0.688380571429
 C4 0.628419 0.951588 0.740  0.688380571429
 C1 0.446991 0.356735 0.28707  0.143343071429
 C2 0.440548 0.413622 0.27468  -0.187831928571
 C3 0.486184 0.44894 0.3361  0.0762355714286
 C2 0.541435 0.425652 0.40650  -0.187831928571
 C1 0.544005 0.368213 0.41632  0.143343071429
 C4 0.392282 0.433447 0.19094  0.688380571429
 C4 0.600208 0.462731 0.46766  0.688380571429
 C1 0.544579 0.139196 0.42989  0.143343071429
 C2 0.551769 0.081562 0.43001  -0.187831928571
 C3 0.491738 0.050773 0.37068  0.0762355714286
 C2 0.429015 0.07928 0.31082  -0.187831928571
 C1 0.427122 0.136909 0.31319  0.143343071429
 C4 0.634305 0.057705 0.48668  0.688380571429
 C4 0.369319 0.049754 0.23952  0.688380571429
 N1 0.995653 0.166307 0.85424  -0.101224428571
 N1 0.981702 0.334133 0.87350  -0.101224428571
 N1 0.0 0.834325 0.3533  -0.101224428571
 N1 0.0 0.666552 0.37294  -0.101224428571
 N1 0.50306 0.667081 0.85876  -0.101224428571
 N1 0.517264 0.835057 0.87429  -0.101224428571
 N1 0.495628 0.334381 0.35767  -0.101224428571
 N1 0.483594 0.166255 0.3725  -0.101224428571
 Cl1 0.011333 0.260034 0.71172  -0.311334428571
 Cl1 0.975441 0.242269 0.02047  -0.311334428571
 Cl1 0.986563 0.740475 0.21080  -0.311334428571
 Cl1 0.020625 0.758711 0.51986  -0.311334428571
 Cl1 0.486976 0.759374 0.71427  -0.311334428571
 Cl1 0.523415 0.744444 0.02349  -0.311334428571
 Cl1 0.513911 0.242147 0.2128  -0.311334428571
 Cl1 0.476024 0.256661 0.52186  -0.311334428571
 O1 0.906511 0.101373 0.61960  -0.581105428571
 O1 0.849427 0.021224 0.67985  -0.581105428571
 O1 0.092706 0.986419 0.94526  -0.581105428571
 O1 0.160688 0.059689 0.0201  -0.581105428571
 O1 0.207447 0.407178 0.0039  -0.581105428571
 O1 0.134252 0.491405 0.  -0.581105428571
 O2 0.875796 0.502741 0.73449  -0.617239428571
 O1 0.812871 0.420923 0.6909  -0.581105428571
 O1 0.093445 0.898403 0.11972  -0.581105428571
 O1 0.146633 0.979441 0.17980  -0.581105428571
 O1 0.902529 0.014377 0.44199  -0.581105428571
 O1 0.836213 0.94174 0.51912  -0.581105428571
 O1 0.787367 0.594675 0.49978  -0.581105428571
 O1 0.861598 0.51114 0.51923  -0.581105428571
 O2 0.119327 0.497482 0.23439  -0.617239428571
 O1 0.182549 0.579303 0.19095  -0.581105428571
 O1 0.595492 0.602161 0.62608  -0.581105428571
 O1 0.648324 0.52169 0.68760  -0.581105428571
 O1 0.404849 0.4869 0.94944  -0.581105428571
 O1 0.337744 0.55968 0.0248  -0.581105428571
 O1 0.290222 0.907666 0.99985  -0.581105428571
 O1 0.36417 0.992083 0.  -0.581105428571
 O2 0.621802 0.002731 0.73017  -0.617239428571
 O1 0.68341 0.920704 0.68796  -0.581105428571
 O1 0.404383 0.400205 0.12476  -0.581105428571
 O1 0.346819 0.479369 0.18722  -0.581105428571
 O1 0.586593 0.514844 0.45288  -0.581105428571
 O1 0.658069 0.442386 0.52619  -0.581105428571
 O1 0.707191 0.092411 0.50380  -0.581105428571
 O1 0.63255 0.0 0.51239  -0.581105428571
 O2 0.373927 0.998411 0.2304  -0.617239428571
 O1 0.315089 0.080752 0.18696  -0.581105428571
