#======================================================================

# CRYSTAL DATA

#----------------------------------------------------------------------

data_VESTA_phase_1


_pd_phase_name                         MOF
_cell_length_a                         20.81800
_cell_length_b                         14.18400
_cell_length_c                         14.21200
_cell_angle_alpha                      105.28500
_cell_angle_beta                       97.02300
_cell_angle_gamma                      95.79800
_symmetry_space_group_name_H-M         "P 1"
_symmetry_Int_Tables_number            1

loop_
_symmetry_equiv_pos_as_xyz
   "x, y, z"

loop_
   _atom_site_label
   _atom_site_fract_x
   _atom_site_fract_y
   _atom_site_fract_z
 _atom_site_charge
 Zn1 0.305513 0.242127 0.68203  0.930305378788
 Zn1 0.805514 0.242127 0.68204  0.930305378788
 Zn1 0.44401 0.317495 0.76071  0.930305378788
 Zn1 0.944012 0.317495 0.76071  0.930305378788
 Zn1 0.194489 0.75789 0.31793  0.930305378788
 Zn1 0.694491 0.757893 0.3179  0.930305378788
 Zn1 0.055991 0.682524 0.23925  0.930305378788
 Zn1 0.555993 0.682528 0.23925  0.930305378788
 H1 0.499965 0.40686 0.48361  0.107577878788
 H1 0.999968 0.406859 0.48361  0.107577878788
 H1 0.474586 0.42142 0.30192  0.107577878788
 H1 0.974589 0.421419 0.30192  0.107577878788
 H1 0.252962 0.272994 0.17971  0.107577878788
 H1 0.752963 0.273001 0.17971  0.107577878788
 H1 0.234755 0.260767 0.98873  0.107577878788
 H1 0.734756 0.260773 0.98873  0.107577878788
 H1 0.234023 0.035695 0.6113  0.107577878788
 H1 0.734026 0.035695 0.61132  0.107577878788
 H1 0.181241 0.309402 0.61244  0.107577878788
 H1 0.681242 0.309403 0.61244  0.107577878788
 H1 0.121573 0.951176 0.54391  0.107577878788
 H1 0.621576 0.951176 0.54390  0.107577878788
 H1 0.063889 0.237395 0.54982  0.107577878788
 H1 0.56389 0.237395 0.54983  0.107577878788
 H1 0.480687 0.102518 0.50179  0.107577878788
 H1 0.980689 0.102519 0.50179  0.107577878788
 H1 0.247969 0.521445 0.5914  0.107577878788
 H1 0.74797 0.521444 0.5914  0.107577878788
 H1 0.274979 0.70211 0.57643  0.107577878788
 H1 0.77498 0.70211 0.57643  0.107577878788
 H1 0.49752 0.816548 0.7267  0.107577878788
 H1 0.997521 0.816548 0.72671  0.107577878788
 H1 0.015989 0.0 0.74012  0.107577878788
 H1 0.515992 0.0 0.74012  0.107577878788
 H1 0.01728 0.390547 0.9668  0.107577878788
 H1 0.517281 0.390552 0.96683  0.107577878788
 H1 0.065387 0.383987 0.69146  0.107577878788
 H1 0.565389 0.383988 0.69146  0.107577878788
 H1 0.130188 0.458299 0.05035  0.107577878788
 H1 0.630188 0.458307 0.05035  0.107577878788
 H1 0.183139 0.446751 0.76241  0.107577878788
 H1 0.68314 0.446755 0.76241  0.107577878788
 H1 0.267751 0.496489 0.89698  0.107577878788
 H1 0.767753 0.496486 0.89698  0.107577878788
 H1 2.4e-05 0.593141 0.51635  0.107577878788
 H1 0.50003 0.593148 0.51635  0.107577878788
 H1 0.025404 0.578589 0.69804  0.107577878788
 H1 0.52541 0.578593 0.69804  0.107577878788
 H1 0.247037 0.72698 0.82024  0.107577878788
 H1 0.74704 0.726993 0.82024  0.107577878788
 H1 0.265245 0.739223 0.  0.107577878788
 H1 0.765248 0.739231 0.  0.107577878788
 H1 0.265978 0.964323 0.38865  0.107577878788
 H1 0.76598 0.964325 0.38865  0.107577878788
 H1 0.318762 0.690612 0.38751  0.107577878788
 H1 0.818762 0.690614 0.38751  0.107577878788
 H1 0.378428 0.04884 0.45607  0.107577878788
 H1 0.878429 0.048842 0.45607  0.107577878788
 H1 0.436113 0.762618 0.45013  0.107577878788
 H1 0.936114 0.762618 0.45013  0.107577878788
 H1 0.019314 0.897496 0.49817  0.107577878788
 H1 0.519317 0.897495 0.49817  0.107577878788
 H1 0.252036 0.478568 0.40853  0.107577878788
 H1 0.752036 0.478571 0.40853  0.107577878788
 H1 0.225026 0.297904 0.42352  0.107577878788
 H1 0.725025 0.297906 0.42352  0.107577878788
 H1 0.002481 0.183467 0.27325  0.107577878788
 H1 0.502482 0.183469 0.27325  0.107577878788
 H1 0.484011 0.992433 0.25984  0.107577878788
 H1 0.984013 0.992432 0.25985  0.107577878788
 H1 0.482722 0.609458 0.03312  0.107577878788
 H1 0.982724 0.609461 0.0331  0.107577878788
 H1 0.434617 0.616023 0.30850  0.107577878788
 H1 0.934617 0.616022 0.30850  0.107577878788
 H1 0.369814 0.541707 0.94961  0.107577878788
 H1 0.869816 0.541709 0.94961  0.107577878788
 H1 0.316864 0.553263 0.23755  0.107577878788
 H1 0.816865 0.553259 0.23755  0.107577878788
 H1 0.232251 0.503514 0.10298  0.107577878788
 H1 0.732251 0.503525 0.10298  0.107577878788
 C1 0.405079 0.283606 0.5483  0.688107878788
 C1 0.90508 0.283608 0.54837  0.688107878788
 C2 0.411068 0.30244 0.45227  -0.111627746212
 C2 0.91107 0.302442 0.45227  -0.111627746212
 C3 0.458097 0.365883 0.42979  -0.123160692641
 C3 0.958099 0.365883 0.429  -0.123160692641
 C3 0.444453 0.373396 0.33257  -0.123160692641
 C3 0.944456 0.373397 0.33257  -0.123160692641
 C2 0.3868 0.314893 0.27982  -0.111627746212
 C2 0.886802 0.314896 0.2798  -0.111627746212
 C2 0.357834 0.303641 0.17899  -0.111627746212
 C2 0.857836 0.303644 0.17899  -0.111627746212
 C3 0.292081 0.281967 0.13708  -0.123160692641
 C3 0.792082 0.281972 0.13708  -0.123160692641
 C3 0.282143 0.275989 0.03554  -0.123160692641
 C3 0.782144 0.275994 0.03554  -0.123160692641
 C2 0.339849 0.292623 0.99958  -0.111627746212
 C2 0.839851 0.292625 0.99958  -0.111627746212
 C1 0.350191 0.292498 0.89857  0.688107878788
 C1 0.850193 0.292499 0.89857  0.688107878788
 C4 0.194636 0.077211 0.59625  0.162532878788
 C4 0.694638 0.077211 0.59625  0.162532878788
 C4 0.164984 0.230746 0.59756  0.162532878788
 C4 0.664985 0.230746 0.59756  0.162532878788
 C3 0.131205 0.031145 0.55979  -0.123160692641
 C3 0.631207 0.031144 0.55979  -0.123160692641
 C3 0.10031 0.190129 0.56228  -0.123160692641
 C3 0.600311 0.190129 0.56228  -0.123160692641
 C5 0.081354 0.08797 0.54360  0.146387878788
 C5 0.581356 0.08797 0.54360  0.146387878788
 C3 0.012767 0.047891 0.5097  -0.123160692641
 C3 0.512769 0.047891 0.50974  -0.123160692641
 C1 0.342702 0.452464 0.71559  0.688107878788
 C1 0.842704 0.452464 0.71559  0.688107878788
 C2 0.337499 0.54886 0.69624  -0.111627746212
 C2 0.8375 0.54886 0.6962  -0.111627746212
 C3 0.290502 0.573419 0.6324  -0.123160692641
 C3 0.790503 0.573419 0.63243  -0.123160692641
 C3 0.304989 0.670169 0.62478  -0.123160692641
 C3 0.804989 0.670169 0.62478  -0.123160692641
 C2 0.363227 0.720514 0.68362  -0.111627746212
 C2 0.863228 0.720514 0.68362  -0.111627746212
 C2 0.392622 0.820571 0.69531  -0.111627746212
 C2 0.892623 0.820571 0.69531  -0.111627746212
 C3 0.458449 0.860531 0.71762  -0.123160692641
 C3 0.958449 0.860531 0.71762  -0.123160692641
 C3 0.468522 0.962125 0.72421  -0.123160692641
 C3 0.968523 0.962125 0.72421  -0.123160692641
 C2 0.410832 0.0 0.70742  -0.111627746212
 C2 0.910832 0.0 0.70742  -0.111627746212
 C1 0.400451 0.10176 0.70849  0.688107878788
 C1 0.900452 0.10176 0.70849  0.688107878788
 C4 0.055751 0.404574 0.92475  0.162532878788
 C4 0.555751 0.40458 0.92475  0.162532878788
 C4 0.082844 0.400267 0.77021  0.162532878788
 C4 0.582845 0.40027 0.77021  0.162532878788
 C3 0.119407 0.441131 0.97021  -0.123160692641
 C3 0.619408 0.441134 0.97021  -0.123160692641
 C3 0.147656 0.435557 0.81020  -0.123160692641
 C3 0.647658 0.435558 0.81020  -0.123160692641
 C5 0.167976 0.455815 0.91253  0.146387878788
 C5 0.667977 0.455817 0.91253  0.146387878788
 C3 0.236662 0.489671 0.95202  -0.123160692641
 C3 0.736663 0.489669 0.95202  -0.123160692641
 C1 0.09492 0.716376 0.45159  0.688107878788
 C1 0.594923 0.716389 0.45159  0.688107878788
 C2 0.088929 0.697545 0.54769  -0.111627746212
 C2 0.588933 0.697557 0.54769  -0.111627746212
 C3 0.041896 0.634113 0.5701  -0.123160692641
 C3 0.541901 0.634122 0.57016  -0.123160692641
 C3 0.055539 0.626604 0.66739  -0.123160692641
 C3 0.555545 0.626611 0.66739  -0.123160692641
 C2 0.113196 0.685099 0.72013  -0.111627746212
 C2 0.6132 0.685108 0.72013  -0.111627746212
 C2 0.142163 0.696354 0.82097  -0.111627746212
 C2 0.642167 0.696362 0.82097  -0.111627746212
 C3 0.207918 0.718019 0.86287  -0.123160692641
 C3 0.707921 0.718028 0.86287  -0.123160692641
 C3 0.217857 0.724005 0.9644  -0.123160692641
 C3 0.717859 0.724012 0.96441  -0.123160692641
 C2 0.16015 0.707386 0.  -0.111627746212
 C2 0.660153 0.70739 0.  -0.111627746212
 C1 0.149809 0.707524 0.10139  0.688107878788
 C1 0.649811 0.707524 0.10139  0.688107878788
 C4 0.305366 0.922806 0.40372  0.162532878788
 C4 0.805367 0.922808 0.40372  0.162532878788
 C4 0.335018 0.769269 0.40240  0.162532878788
 C4 0.835019 0.76927 0.40239  0.162532878788
 C3 0.368797 0.968871 0.4401  -0.123160692641
 C3 0.868799 0.968873 0.44018  -0.123160692641
 C3 0.399693 0.809885 0.43768  -0.123160692641
 C3 0.899693 0.809886 0.43768  -0.123160692641
 C5 0.418648 0.912045 0.45636  0.146387878788
 C5 0.918649 0.912046 0.45636  0.146387878788
 C3 0.487235 0.952123 0.49022  -0.123160692641
 C3 0.987236 0.952124 0.49022  -0.123160692641
 C1 0.157302 0.547551 0.28436  0.688107878788
 C1 0.657302 0.547554 0.28436  0.688107878788
 C2 0.162504 0.451154 0.30371  -0.111627746212
 C2 0.662504 0.451158 0.30371  -0.111627746212
 C3 0.209502 0.426594 0.36752  -0.123160692641
 C3 0.709502 0.426597 0.3675  -0.123160692641
 C3 0.195015 0.329845 0.37517  -0.123160692641
 C3 0.695015 0.329848 0.37517  -0.123160692641
 C2 0.136775 0.279501 0.3163  -0.111627746212
 C2 0.636775 0.279504 0.31633  -0.111627746212
 C2 0.107379 0.179445 0.30465  -0.111627746212
 C2 0.60738 0.179447 0.30465  -0.111627746212
 C3 0.041553 0.139484 0.28234  -0.123160692641
 C3 0.541553 0.139487 0.28234  -0.123160692641
 C3 0.031479 0.037891 0.27575  -0.123160692641
 C3 0.53148 0.037893 0.27575  -0.123160692641
 C2 0.08917 0.999961 0.29255  -0.111627746212
 C2 0.589171 0.999963 0.29254  -0.111627746212
 C1 0.099551 0.898259 0.29148  0.688107878788
 C1 0.599553 0.898261 0.29148  0.688107878788
 C4 0.444251 0.595436 0.07521  0.162532878788
 C4 0.944253 0.595435 0.07521  0.162532878788
 C4 0.417159 0.599746 0.22975  0.162532878788
 C4 0.91716 0.599744 0.22975  0.162532878788
 C3 0.380597 0.558867 0.02975  -0.123160692641
 C3 0.880597 0.558874 0.02975  -0.123160692641
 C3 0.352347 0.564444 0.1897  -0.123160692641
 C3 0.852348 0.564449 0.18976  -0.123160692641
 C5 0.332026 0.544193 0.08743  0.146387878788
 C5 0.832027 0.544196 0.08743  0.146387878788
 C3 0.263342 0.510328 0.04794  -0.123160692641
 C3 0.763342 0.510339 0.04794  -0.123160692641
 S1 0.350206 0.250119 0.35188  0.120917878788
 S1 0.850207 0.250123 0.35188  0.120917878788
 S1 0.406945 0.314996 0.09120  0.120917878788
 S1 0.906947 0.314997 0.09120  0.120917878788
 S1 0.399431 0.646745 0.74879  0.120917878788
 S1 0.899431 0.646746 0.74879  0.120917878788
 S1 0.343633 0.910229 0.6840  0.120917878788
 S1 0.843634 0.910229 0.6840  0.120917878788
 S1 0.149795 0.749862 0.64807  0.120917878788
 S1 0.649798 0.749875 0.64807  0.120917878788
 S1 0.093053 0.685015 0.90876  0.120917878788
 S1 0.593056 0.685019 0.90876  0.120917878788
 S1 0.10057 0.353271 0.25117  0.120917878788
 S1 0.600571 0.353275 0.25117  0.120917878788
 S1 0.156368 0.089788 0.31596  0.120917878788
 S1 0.656369 0.089791 0.31596  0.120917878788
 N1 0.21189 0.175984 0.61618  -0.310597121212
 N1 0.711891 0.175985 0.61618  -0.310597121212
 N1 0.037204 0.383221 0.82586  -0.310597121212
 N1 0.537204 0.38323 0.82586  -0.310597121212
 N1 0.288112 0.824033 0.38379  -0.310597121212
 N1 0.788113 0.824034 0.38378  -0.310597121212
 N1 0.462796 0.616806 0.1741  -0.310597121212
 N1 0.962799 0.616793 0.1741  -0.310597121212
 O1 0.300215 0.279656 0.83310  -0.592194621212
 O1 0.800216 0.279657 0.83310  -0.592194621212
 O1 0.410099 0.305395 0.88636  -0.592194621212
 O1 0.9101 0.305396 0.88636  -0.592194621212
 O1 0.352738 0.231896 0.55423  -0.592194621212
 O1 0.85274 0.231898 0.55423  -0.592194621212
 O1 0.452793 0.322163 0.61842  -0.592194621212
 O1 0.952795 0.322165 0.61842  -0.592194621212
 O1 0.450372 0.166338 0.72323  -0.592194621212
 O1 0.950373 0.166337 0.72323  -0.592194621212
 O1 0.340544 0.115543 0.69455  -0.592194621212
 O1 0.840545 0.115543 0.6945  -0.592194621212
 O1 0.394682 0.444955 0.76911  -0.592194621212
 O1 0.894683 0.444955 0.76911  -0.592194621212
 O1 0.294829 0.383657 0.67571  -0.592194621212
 O1 0.79483 0.383657 0.67571  -0.592194621212
 O1 0.199786 0.720369 0.16686  -0.592194621212
 O1 0.699788 0.720369 0.16686  -0.592194621212
 O1 0.089902 0.694634 0.11360  -0.592194621212
 O1 0.589904 0.694631 0.11360  -0.592194621212
 O1 0.147262 0.768083 0.44573  -0.592194621212
 O1 0.647264 0.768097 0.44573  -0.592194621212
 O1 0.047206 0.677818 0.38153  -0.592194621212
 O1 0.547208 0.677832 0.38153  -0.592194621212
 O1 0.049631 0.83368 0.27675  -0.592194621212
 O1 0.549632 0.833683 0.27674  -0.592194621212
 O1 0.159459 0.884478 0.30542  -0.592194621212
 O1 0.65946 0.88448 0.3054  -0.592194621212
 O1 0.105323 0.555063 0.23084  -0.592194621212
 O1 0.605323 0.555066 0.23084  -0.592194621212
 O1 0.205177 0.616355 0.32424  -0.592194621212
 O1 0.705177 0.616359 0.32424  -0.592194621212
