#======================================================================

# CRYSTAL DATA

#----------------------------------------------------------------------

data_VESTA_phase_1


_pd_phase_name                         MOF
_cell_length_a                         18.44800
_cell_length_b                         12.01200
_cell_length_c                         12.57600
_cell_angle_alpha                      79.49400
_cell_angle_beta                       74.76500
_cell_angle_gamma                      78.17500
_symmetry_space_group_name_H-M         "P 1"
_symmetry_Int_Tables_number            1

loop_
_symmetry_equiv_pos_as_xyz
   "x, y, z"

loop_
   _atom_site_label
   _atom_site_fract_x
   _atom_site_fract_y
   _atom_site_fract_z
 _atom_site_charge
 Zn1 0.143697 0.743025 0.90286  0.92200494382
 Zn1 0.643701 0.743026 0.90286  0.92200494382
 Zn1 0.356316 0.256932 0.09715  0.92200494382
 Zn1 0.856321 0.256934 0.09715  0.92200494382
 Zn1 2e-06 0.999997 0.  0.92200494382
 Zn1 0.500006 0.999998 1e-0  0.92200494382
 H1 0.039577 0.367531 0.26099  0.113633405359
 H1 0.539582 0.367531 0.26099  0.113633405359
 H1 0.465484 0.479613 0.24389  0.113633405359
 H1 0.965484 0.479613 0.24390  0.113633405359
 H1 0.021507 0.579507 0.04893  0.113633405359
 H1 0.521518 0.579507 0.04893  0.113633405359
 H1 0.224079 0.632881 0.11169  0.113633405359
 H1 0.724089 0.632876 0.11169  0.113633405359
 H1 0.403483 0.619369 0.29440  0.113633405359
 H1 0.903493 0.619369 0.29440  0.113633405359
 H1 0.362786 0.700958 0.40399  0.113633405359
 H1 0.862795 0.700958 0.40399  0.113633405359
 H1 0.433788 0.7637 0.12083  0.113633405359
 H1 0.933801 0.763694 0.12083  0.113633405359
 H1 0.03186 0.979637 0.25155  0.113633405359
 H1 0.531872 0.979625 0.25154  0.113633405359
 H1 0.062286 0.251907 0.37263  0.113633405359
 H1 0.562298 0.251908 0.37263  0.113633405359
 H1 0.09049 0.217699 0.49831  0.113633405359
 H1 0.590501 0.217703 0.49831  0.113633405359
 H1 0.171156 0.248668 0.20342  0.113633405359
 H1 0.671168 0.248667 0.2034  0.113633405359
 H1 0.336279 0.325346 0.34382  0.113633405359
 H1 0.836292 0.325345 0.34382  0.113633405359
 H1 0.169172 0.072963 0.01312  0.113633405359
 H1 0.669186 0.072969 0.01311  0.113633405359
 H1 0.460442 0.632435 0.73902  0.113633405359
 H1 0.960447 0.632435 0.73902  0.113633405359
 H1 0.03454 0.520353 0.75611  0.113633405359
 H1 0.53454 0.520353 0.75612  0.113633405359
 H1 0.478505 0.420457 0.95108  0.113633405359
 H1 0.978517 0.420457 0.95107  0.113633405359
 H1 0.275936 0.367086 0.88831  0.113633405359
 H1 0.775946 0.367081 0.8883  0.113633405359
 H1 0.096532 0.380597 0.70561  0.113633405359
 H1 0.596543 0.380598 0.70561  0.113633405359
 H1 0.137231 0.299009 0.59601  0.113633405359
 H1 0.63724 0.299009 0.59601  0.113633405359
 H1 0.066223 0.236272 0.87918  0.113633405359
 H1 0.566237 0.236267 0.8791  0.113633405359
 H1 0.468153 0.020341 0.74846  0.113633405359
 H1 0.968165 0.02033 0.74846  0.113633405359
 H1 0.437726 0.748058 0.62738  0.113633405359
 H1 0.937738 0.748059 0.62738  0.113633405359
 H1 0.409524 0.782263 0.50170  0.113633405359
 H1 0.909535 0.782267 0.50170  0.113633405359
 H1 0.328854 0.751297 0.79658  0.113633405359
 H1 0.828867 0.751296 0.7965  0.113633405359
 H1 0.163733 0.674618 0.65619  0.113633405359
 H1 0.663745 0.674617 0.65619  0.113633405359
 H1 0.330839 0.926997 0.98689  0.113633405359
 H1 0.830852 0.927001 0.9868  0.113633405359
 C1 0.508324 0.479631 0.39006  -0.00151005617978
 C1 0.0 0.479632 0.39006  -0.00151005617978
 C1 0.463283 0.58154 0.42701  -0.00151005617978
 C1 0.963288 0.581542 0.42701  -0.00151005617978
 C1 0.044316 0.397389 0.46350  -0.00151005617978
 C1 0.544326 0.397395 0.46349  -0.00151005617978
 C2 0.518932 0.458032 0.27155  -0.0810483895131
 C2 0.0 0.458032 0.27155  -0.0810483895131
 C3 0.068311 0.575399 0.08807  0.230421610487
 C3 0.568321 0.5754 0.08807  0.230421610487
 C3 0.170826 0.602331 0.12302  0.230421610487
 C3 0.670835 0.60233 0.12302  0.230421610487
 C2 0.417482 0.664408 0.35277  -0.0810483895131
 C2 0.917491 0.664411 0.35277  -0.0810483895131
 C3 0.455011 0.801155 0.1769  0.230421610487
 C3 0.955018 0.801156 0.17692  0.230421610487
 C3 0.005217 0.908965 0.24576  0.230421610487
 C3 0.505225 0.908957 0.24576  0.230421610487
 C2 0.089006 0.284263 0.42648  -0.0810483895131
 C2 0.589016 0.284267 0.42648  -0.0810483895131
 C3 0.200318 0.272378 0.258  0.230421610487
 C3 0.700329 0.272378 0.25870  0.230421610487
 C3 0.282241 0.311977 0.33378  0.230421610487
 C3 0.782253 0.311977 0.33378  0.230421610487
 C4 0.193208 0.89627 0.97144  0.66116994382
 C4 0.693219 0.896266 0.97144  0.66116994382
 C5 0.214027 0.998976 0.9981  -0.17469005618
 C5 0.714034 0.99897 0.9981  -0.17469005618
 C1 0.991697 0.520334 0.60995  -0.00151005617978
 C1 0.4917 0.520335 0.60995  -0.00151005617978
 C1 0.036737 0.418425 0.57  -0.00151005617978
 C1 0.536742 0.418426 0.57300  -0.00151005617978
 C1 0.455699 0.602571 0.53651  -0.00151005617978
 C1 0.955709 0.602577 0.53651  -0.00151005617978
 C2 0.981091 0.541934 0.72846  -0.0810483895131
 C2 0.481092 0.541933 0.72846  -0.0810483895131
 C3 0.431703 0.424564 0.91193  0.230421610487
 C3 0.931713 0.424563 0.91193  0.230421610487
 C3 0.32919 0.397633 0.87698  0.230421610487
 C3 0.829199 0.397632 0.8769  0.230421610487
 C2 0.082535 0.335555 0.6472  -0.0810483895131
 C2 0.582543 0.335558 0.64723  -0.0810483895131
 C3 0.045006 0.198811 0.82308  0.230421610487
 C3 0.545015 0.198811 0.82308  0.230421610487
 C3 0.4948 0.091009 0.75424  0.230421610487
 C3 0.994808 0.091002 0.75424  0.230421610487
 C2 0.411008 0.715699 0.57353  -0.0810483895131
 C2 0.911018 0.715702 0.57353  -0.0810483895131
 C3 0.299694 0.727586 0.74131  0.230421610487
 C3 0.799706 0.727586 0.74131  0.230421610487
 C3 0.217772 0.687987 0.6662  0.230421610487
 C3 0.717784 0.687986 0.66623  0.230421610487
 C4 0.306805 0.103693 0.02856  0.66116994382
 C4 0.806815 0.103689 0.0285  0.66116994382
 C5 0.285987 0.000989 0.00190  -0.17469005618
 C5 0.785994 0.000983 0.00191  -0.17469005618
 S1 0.473942 0.773359 0.88046  1.68252494382
 S1 0.973949 0.773358 0.88046  1.68252494382
 S1 0.026069 0.226613 0.11955  1.68252494382
 S1 0.526076 0.226611 0.11954  1.68252494382
 N1 0.129968 0.625707 0.04244  -0.426181722846
 N1 0.629978 0.625706 0.04244  -0.426181722846
 N2 0.0723 0.526128 0.19157  0.169258277154
 N2 0.572309 0.526127 0.19157  0.169258277154
 N3 0.137883 0.541264 0.215  -0.385898389513
 N3 0.637891 0.541263 0.21530  -0.385898389513
 N1 0.48705 0.895911 0.15048  -0.426181722846
 N1 0.987056 0.895914 0.1504  -0.426181722846
 N2 0.454841 0.758985 0.28391  0.169258277154
 N2 0.954849 0.758987 0.28391  0.169258277154
 N3 0.986364 0.827334 0.32958  -0.385898389513
 N3 0.486368 0.827329 0.3295  -0.385898389513
 N1 0.273614 0.284975 0.23703  -0.426181722846
 N1 0.773626 0.284972 0.23703  -0.426181722846
 N2 0.167464 0.291244 0.3640  0.169258277154
 N2 0.667474 0.291249 0.36404  0.169258277154
 N3 0.218834 0.316859 0.41360  -0.385898389513
 N3 0.718846 0.316861 0.41360  -0.385898389513
 N1 0.370046 0.374256 0.95757  -0.426181722846
 N1 0.870056 0.374255 0.95757  -0.426181722846
 N2 0.427716 0.473837 0.8084  0.169258277154
 N2 0.927724 0.473837 0.80844  0.169258277154
 N3 0.362134 0.4587 0.78471  -0.385898389513
 N3 0.862142 0.458701 0.78471  -0.385898389513
 N1 0.012968 0.104053 0.84953  -0.426181722846
 N1 0.512974 0.104056 0.84953  -0.426181722846
 N2 0.045178 0.240979 0.71610  0.169258277154
 N2 0.545184 0.240982 0.71610  0.169258277154
 N3 0.513658 0.172637 0.67043  -0.385898389513
 N3 0.0 0.172632 0.67043  -0.385898389513
 N1 0.226397 0.714989 0.76298  -0.426181722846
 N1 0.726409 0.714986 0.76298  -0.426181722846
 N2 0.33255 0.708717 0.63597  0.169258277154
 N2 0.83256 0.70872 0.63597  0.169258277154
 N3 0.281179 0.683104 0.58641  -0.385898389513
 N3 0.781191 0.683106 0.58641  -0.385898389513
 O1 0.059767 0.736429 0.83333  -0.79265005618
 O1 0.559771 0.736428 0.83333  -0.79265005618
 O1 0.462636 0.879675 0.93497  -0.79265005618
 O1 0.962642 0.879673 0.93497  -0.79265005618
 O2 0.444229 0.679088 0.96455  -0.76369005618
 O2 0.944234 0.679088 0.96455  -0.76369005618
 O2 0.437076 0.800875 0.78509  -0.76369005618
 O2 0.93708 0.800877 0.78509  -0.76369005618
 O3 0.126745 0.905889 0.94794  -0.63205505618
 O3 0.626756 0.905892 0.94793  -0.63205505618
 O4 0.238408 0.80249 0.96781  -0.55374505618
 O4 0.738424 0.802494 0.96779  -0.55374505618
 O1 0.440247 0.263547 0.1666  -0.79265005618
 O1 0.940251 0.263546 0.16668  -0.79265005618
 O1 0.037371 0.1203 0.06504  -0.79265005618
 O1 0.537378 0.120296 0.06504  -0.79265005618
 O2 0.055788 0.320881 0.03546  -0.76369005618
 O2 0.555793 0.320878 0.03546  -0.76369005618
 O2 0.062938 0.199091 0.21492  -0.76369005618
 O2 0.562942 0.199093 0.21492  -0.76369005618
 O3 0.373269 0.09407 0.05207  -0.63205505618
 O3 0.873284 0.094075 0.05205  -0.63205505618
 O4 0.261604 0.19747 0.03221  -0.55374505618
 O4 0.761619 0.197471 0.032  -0.55374505618
