#======================================================================

# CRYSTAL DATA

#----------------------------------------------------------------------

data_VESTA_phase_1


_pd_phase_name                         MOF
_cell_length_a                         12.48500
_cell_length_b                         12.66300
_cell_length_c                         14.39700
_cell_angle_alpha                      97.32900
_cell_angle_beta                       90.00800
_cell_angle_gamma                      90.00800
_symmetry_space_group_name_H-M         "P 1"
_symmetry_Int_Tables_number            1

loop_
_symmetry_equiv_pos_as_xyz
   "x, y, z"

loop_
   _atom_site_label
   _atom_site_fract_x
   _atom_site_fract_y
   _atom_site_fract_z
 _atom_site_charge
 Cd1 0.953961 0.456823 0.12134  0.977807833333
 Cd1 0.453322 0.542142 0.37834  0.977807833333
 Cd1 0.046003 0.543188 0.87868  0.977807833333
 Cd1 0.546664 0.457821 0.62157  0.977807833333
 H1 0.698362 0.493426 0.15363  0.115629638889
 H1 0.558247 0.63573 0.16724  0.115629638889
 H1 0.614831 0.824538 0.16264  0.115629638889
 H1 0.940254 0.711848 0.12583  0.115629638889
 H1 0.785192 0.061199 0.1529  0.115629638889
 H1 0.686756 0.983203 0.20362  0.115629638889
 H1 0.696873 0.975454 0.08079  0.115629638889
 H1 0.090092 0.844704 0.0882  0.115629638889
 H1 0.208654 0.920222 0.11718  0.115629638889
 H1 0.152329 0.91613 0.00397  0.115629638889
 H1 0.277263 0.071524 0.10684  0.115629638889
 H1 0.346197 0.256528 0.10565  0.115629638889
 H1 0.215421 0.405929 0.10842  0.115629638889
 H1 0.956829 0.201511 0.11023  0.115629638889
 H1 0.831029 0.214312 0.31740  0.115629638889
 H1 0.706918 0.233811 0.26191  0.115629638889
 H1 0.720747 0.28954 0.44758  0.115629638889
 H1 0.797573 0.396495 0.41823  0.115629638889
 H1 0.198099 0.505263 0.34638  0.115629638889
 H1 0.05802 0.362925 0.3329  0.115629638889
 H1 0.114688 0.174118 0.33757  0.115629638889
 H1 0.440308 0.286819 0.37271  0.115629638889
 H1 0.285029 0.937522 0.34669  0.115629638889
 H1 0.186589 0.015583 0.29610  0.115629638889
 H1 0.196782 0.023196 0.41893  0.115629638889
 H1 0.590199 0.154145 0.41070  0.115629638889
 H1 0.708758 0.078411 0.38244  0.115629638889
 H1 0.652199 0.083537 0.49564  0.115629638889
 H1 0.777179 0.927409 0.39372  0.115629638889
 H1 0.84604 0.742423 0.39497  0.115629638889
 H1 0.715213 0.593049 0.39257  0.115629638889
 H1 0.456742 0.797238 0.38904  0.115629638889
 H1 0.331291 0.785384 0.18215  0.115629638889
 H1 0.207063 0.765794 0.2373  0.115629638889
 H1 0.220621 0.70982 0.05200  0.115629638889
 H1 0.298731 0.603542 0.08118  0.115629638889
 H1 0.301567 0.506613 0.84649  0.115629638889
 H1 0.441705 0.364333 0.83271  0.115629638889
 H1 0.385182 0.175503 0.83734  0.115629638889
 H1 0.059713 0.288067 0.87402  0.115629638889
 H1 0.214815 0.938825 0.84701  0.115629638889
 H1 0.313276 0.016856 0.79644  0.115629638889
 H1 0.30309 0.024534 0.91926  0.115629638889
 H1 0.909745 0.155376 0.91160  0.115629638889
 H1 0.79126 0.079803 0.8825  0.115629638889
 H1 0.847347 0.084 0.99583  0.115629638889
 H1 0.72272 0.928581 0.89333  0.115629638889
 H1 0.653781 0.74356 0.8944  0.115629638889
 H1 0.784566 0.594188 0.89186  0.115629638889
 H1 0.043137 0.798509 0.88941  0.115629638889
 H1 0.168976 0.785655 0.68256  0.115629638889
 H1 0.293065 0.766186 0.73809  0.115629638889
 H1 0.279255 0.710396 0.55241  0.115629638889
 H1 0.20244 0.603443 0.58180  0.115629638889
 H1 0.801895 0.494727 0.65367  0.115629638889
 H1 0.94199 0.63704 0.66675  0.115629638889
 H1 0.885259 0.825863 0.66241  0.115629638889
 H1 0.559666 0.713118 0.62722  0.115629638889
 H1 0.714894 0.062428 0.65310  0.115629638889
 H1 0.813439 0.984463 0.7036  0.115629638889
 H1 0.802905 0.976484 0.58082  0.115629638889
 H1 0.409907 0.845805 0.58908  0.115629638889
 H1 0.291238 0.921425 0.61715  0.115629638889
 H1 0.348279 0.916712 0.50416  0.115629638889
 H1 0.222809 0.072597 0.60638  0.115629638889
 H1 0.154 0.257577 0.60496  0.115629638889
 H1 0.284863 0.406931 0.60746  0.115629638889
 H1 0.543281 0.202634 0.61071  0.115629638889
 H1 0.668608 0.214715 0.81781  0.115629638889
 H1 0.79286 0.234279 0.76262  0.115629638889
 H1 0.779285 0.290202 0.94797  0.115629638889
 H1 0.701214 0.396532 0.91885  0.115629638889
 C1 0.719447 0.576287 0.14959  0.185107833333
 C2 0.642108 0.656222 0.15749  -0.0810984166667
 C2 0.674506 0.761236 0.15547  -0.0810984166667
 C3 0.783676 0.785022 0.14614  -0.181027166667
 C1 0.855282 0.698512 0.13626  0.185107833333
 C4 0.823395 0.894924 0.14487  0.334027833333
 C5 0.744187 0.984231 0.14584  -0.430582166667
 C4 0.064545 0.012772 0.11133  0.334027833333
 C5 0.132581 0.917844 0.07856  -0.430582166667
 C3 0.110394 0.120159 0.10986  -0.181027166667
 C2 0.221422 0.137616 0.1068  -0.0810984166667
 C2 0.260498 0.24048 0.10612  -0.0810984166667
 C1 0.188139 0.324173 0.1074  0.185107833333
 C1 0.043677 0.209673 0.10952  0.185107833333
 C6 0.832987 0.341226 0.23565  0.691402833333
 C7 0.773471 0.27532 0.300  -0.282087166667
 C7 0.734618 0.339355 0.39169  -0.282087166667
 C6 0.633988 0.403401 0.37959  0.691402833333
 C1 0.219231 0.422403 0.35030  0.185107833333
 C2 0.141906 0.342436 0.34254  -0.0810984166667
 C2 0.174354 0.237447 0.34454  -0.0810984166667
 C3 0.283585 0.213686 0.35348  -0.181027166667
 C1 0.355228 0.300189 0.3629  0.185107833333
 C4 0.323285 0.103818 0.35493  0.334027833333
 C5 0.244057 0.014497 0.35386  -0.430582166667
 C4 0.564476 0.986097 0.38867  0.334027833333
 C5 0.632613 0.081143 0.42095  -0.430582166667
 C3 0.610299 0.878721 0.39023  -0.181027166667
 C2 0.72131 0.861297 0.39356  -0.0810984166667
 C2 0.760346 0.758439 0.39434  -0.0810984166667
 C1 0.68795 0.674746 0.3930  0.185107833333
 C1 0.543564 0.789137 0.39021  0.185107833333
 C6 0.333086 0.658537 0.26407  0.691402833333
 C7 0.273766 0.724309 0.19880  -0.282087166667
 C7 0.235268 0.660043 0.10776  -0.282087166667
 C6 0.13545 0.594949 0.120  0.691402833333
 C1 0.280492 0.42373 0.85043  0.185107833333
 C2 0.357855 0.343817 0.84248  -0.0810984166667
 C2 0.325495 0.238797 0.8445  -0.0810984166667
 C3 0.216326 0.214978 0.85382  -0.181027166667
 C1 0.144688 0.301459 0.86366  0.185107833333
 C4 0.176603 0.105104 0.85519  0.334027833333
 C5 0.255809 0.0158 0.85419  -0.430582166667
 C4 0.935394 0.987306 0.88867  0.334027833333
 C5 0.86726 0.082226 0.92127  -0.430582166667
 C3 0.889572 0.879911 0.89011  -0.181027166667
 C2 0.778552 0.862471 0.89328  -0.0810984166667
 C2 0.739481 0.759602 0.89392  -0.0810984166667
 C1 0.811844 0.675919 0.89266  0.185107833333
 C1 0.956291 0.790369 0.89030  0.185107833333
 C6 0.166978 0.658757 0.76434  0.691402833333
 C7 0.226528 0.724657 0.69930  -0.282087166667
 C7 0.26539 0.660601 0.60831  -0.282087166667
 C6 0.366017 0.596563 0.62043  0.691402833333
 C1 0.780758 0.577567 0.64966  0.185107833333
 C2 0.858079 0.657537 0.65731  -0.0810984166667
 C2 0.825588 0.762539 0.65548  -0.0810984166667
 C3 0.716342 0.786299 0.64661  -0.181027166667
 C1 0.644738 0.699771 0.63707  0.185107833333
 C4 0.676571 0.896177 0.64536  0.334027833333
 C5 0.755812 0.985427 0.64599  -0.430582166667
 C4 0.43551 0.013882 0.61161  0.334027833333
 C5 0.367544 0.918851 0.57888  -0.430582166667
 C3 0.389706 0.121237 0.60986  -0.181027166667
 C2 0.278699 0.138689 0.60651  -0.0810984166667
 C2 0.239689 0.241538 0.60562  -0.0810984166667
 C1 0.312102 0.325216 0.60692  0.185107833333
 C1 0.45646 0.210773 0.60968  0.185107833333
 C6 0.66688 0.341522 0.73589  0.691402833333
 C7 0.726164 0.275773 0.80119  -0.282087166667
 C7 0.764655 0.340021 0.89224  -0.282087166667
 C6 0.864503 0.405085 0.87983  0.691402833333
 N1 0.824438 0.597422 0.13798  -0.341677166667
 N2 0.927398 0.905621 0.14158  -0.269957166667
 N2 0.965324 0.008118 0.14034  -0.269957166667
 N1 0.081223 0.308762 0.10827  -0.341677166667
 N1 0.324289 0.401285 0.36148  -0.341677166667
 N2 0.427277 0.093162 0.35845  -0.269957166667
 N2 0.465184 0.990703 0.35984  -0.269957166667
 N1 0.581047 0.690074 0.39172  -0.341677166667
 N1 0.175506 0.402566 0.86203  -0.341677166667
 N2 0.072595 0.09444 0.85853  -0.269957166667
 N2 0.034673 0.991969 0.85981  -0.269957166667
 N1 0.918762 0.691301 0.89171  -0.341677166667
 N1 0.675696 0.598683 0.63853  -0.341677166667
 N2 0.572561 0.906868 0.64228  -0.269957166667
 N2 0.534633 0.009321 0.64086  -0.269957166667
 N1 0.418996 0.309846 0.60818  -0.341677166667
 O1 0.897961 0.412549 0.27229  -0.639372166667
 O2 0.819848 0.319675 0.14740  -0.583382166667
 O2 0.60693 0.426266 0.30025  -0.583382166667
 O3 0.578239 0.435907 0.45345  -0.653252166667
 O1 0.39818 0.587269 0.22758  -0.639372166667
 O2 0.319699 0.680123 0.35227  -0.583382166667
 O2 0.110818 0.569498 0.19922  -0.583382166667
 O3 0.077865 0.564378 0.0469  -0.653252166667
 O1 0.102022 0.587422 0.72770  -0.639372166667
 O2 0.180125 0.680314 0.85259  -0.583382166667
 O2 0.393058 0.573669 0.69976  -0.583382166667
 O3 0.421746 0.56408 0.54654  -0.653252166667
 O1 0.601766 0.412797 0.77231  -0.639372166667
 O2 0.680267 0.319865 0.64769  -0.583382166667
 O2 0.889185 0.430499 0.80080  -0.583382166667
 O3 0.92209 0.435616 0.95309  -0.653252166667
