#======================================================================

# CRYSTAL DATA

#----------------------------------------------------------------------

data_VESTA_phase_1


_pd_phase_name                         MOF
_cell_length_a                         23.75300
_cell_length_b                         14.99600
_cell_length_c                         17.40900
_cell_angle_alpha                      89.92800
_cell_angle_beta                       90.00700
_cell_angle_gamma                      110.26900
_symmetry_space_group_name_H-M         "P 1"
_symmetry_Int_Tables_number            1

loop_
_symmetry_equiv_pos_as_xyz
   "x, y, z"

loop_
   _atom_site_label
   _atom_site_fract_x
   _atom_site_fract_y
   _atom_site_fract_z
 _atom_site_charge
 Zn1 0.465954 0.101775 0.17701  0.901221086957
 Zn1 0.965257 0.101511 0.17704  0.901221086957
 Zn2 0.425519 0.863539 0.14365  1.02561108696
 Zn2 0.925867 0.86378 0.14347  1.02561108696
 Zn3 0.439358 0.393311 0.40970  0.908941086957
 Zn3 0.938517 0.391995 0.40969  0.908941086957
 Zn1 0.284348 0.398211 0.67687  0.901221086957
 Zn1 0.785214 0.398682 0.677  0.901221086957
 Zn2 0.323782 0.63619 0.64353  1.02561108696
 Zn2 0.824467 0.636497 0.64358  1.02561108696
 Zn3 0.311036 0.106663 0.90979  0.908941086957
 Zn3 0.810465 0.105795 0.90974  0.908941086957
 Zn1 0.034746 0.898444 0.82296  0.901221086957
 Zn1 0.534138 0.898236 0.82299  0.901221086957
 Zn2 0.074136 0.136194 0.85654  1.02561108696
 Zn2 0.574524 0.136464 0.85636  1.02561108696
 Zn3 0.061415 0.607714 0.59034  0.908941086957
 Zn3 0.560608 0.606531 0.59033  0.908941086957
 Zn1 0.21478 0.60132 0.32282  0.901221086957
 Zn1 0.715655 0.601789 0.32313  0.901221086957
 Zn2 0.175525 0.363509 0.35643  1.02561108696
 Zn2 0.67622 0.363832 0.35649  1.02561108696
 Zn3 0.189556 0.894211 0.09028  0.908941086957
 Zn3 0.688964 0.893305 0.09022  0.908941086957
 H1 0.477664 0.969674 0.24451  0.418621086957
 H1 0.978334 0.970177 0.24402  0.418621086957
 H2 0.396113 0.234535 0.25802  0.0925940869565
 H2 0.895718 0.23409 0.25812  0.0925940869565
 H3 0.50675 0.567946 0.41068  0.29697442029
 H3 0.0 0.566921 0.41066  0.29697442029
 H2 0.413348 0.583569 0.44414  0.0925940869565
 H2 0.913057 0.583094 0.44414  0.0925940869565
 H2 0.38742 0.551978 0.34808  0.0925940869565
 H2 0.887086 0.551742 0.34805  0.0925940869565
 H2 0.073137 0.115902 0.04456  0.0925940869565
 H2 0.573466 0.115932 0.04418  0.0925940869565
 H2 0.452758 0.499842 0.25913  0.0925940869565
 H2 0.952253 0.499363 0.25900  0.0925940869565
 H2 0.025608 0.509648 0.29054  0.0925940869565
 H2 0.52616 0.51051 0.29072  0.0925940869565
 H2 0.420963 0.727042 0.36334  0.0925940869565
 H2 0.920932 0.726758 0.36354  0.0925940869565
 H2 0.493392 0.729762 0.39535  0.0925940869565
 H2 0.993301 0.72908 0.39548  0.0925940869565
 H2 0.057661 0.68141 0.29774  0.0925940869565
 H2 0.557912 0.682258 0.29775  0.0925940869565
 H2 0.027443 0.646886 0.20414  0.0925940869565
 H2 0.527776 0.647525 0.20414  0.0925940869565
 H3 0.496967 0.768123 0.25728  0.29697442029
 H3 0.996926 0.767727 0.25744  0.29697442029
 H3 0.436434 0.675465 0.24314  0.29697442029
 H3 0.936293 0.675331 0.24321  0.29697442029
 H1 0.271502 0.529199 0.74425  0.418621086957
 H1 0.771977 0.529658 0.74409  0.418621086957
 H2 0.354116 0.265489 0.75799  0.0925940869565
 H2 0.854332 0.265352 0.75850  0.0925940869565
 H3 0.243225 0.932225 0.9104  0.29697442029
 H3 0.742966 0.931362 0.91052  0.29697442029
 H2 0.336481 0.916053 0.94408  0.0925940869565
 H2 0.836367 0.915571 0.94378  0.0925940869565
 H2 0.362549 0.947797 0.84804  0.0925940869565
 H2 0.862269 0.94752 0.84771  0.0925940869565
 H2 0.1767 0.383764 0.54414  0.0925940869565
 H2 0.677123 0.384508 0.54480  0.0925940869565
 H2 0.297574 0.0 0.75899  0.0925940869565
 H2 0.796919 0.0 0.75894  0.0925940869565
 H2 0.224182 0.990242 0.79040  0.0925940869565
 H2 0.723524 0.989323 0.79066  0.0925940869565
 H2 0.328707 0.772701 0.86337  0.0925940869565
 H2 0.828703 0.772414 0.86284  0.0925940869565
 H2 0.256281 0.770198 0.89521  0.0925940869565
 H2 0.756272 0.769563 0.89495  0.0925940869565
 H2 0.192116 0.818475 0.79751  0.0925940869565
 H2 0.691791 0.817579 0.79755  0.0925940869565
 H2 0.222413 0.853343 0.70392  0.0925940869565
 H2 0.721893 0.852697 0.70392  0.0925940869565
 H3 0.252934 0.732303 0.75718  0.29697442029
 H3 0.752732 0.731811 0.75685  0.29697442029
 H3 0.313551 0.824788 0.74311  0.29697442029
 H3 0.813262 0.824639 0.74279  0.29697442029
 H1 0.021672 0.029787 0.75  0.418621086957
 H1 0.522362 0.030302 0.75553  0.418621086957
 H2 0.104283 0.765819 0.74187  0.0925940869565
 H2 0.603904 0.765376 0.74198  0.0925940869565
 H3 0.993711 0.432881 0.58938  0.29697442029
 H3 0.493227 0.431915 0.58937  0.29697442029
 H2 0.086931 0.416798 0.55589  0.0925940869565
 H2 0.586639 0.416361 0.55589  0.0925940869565
 H2 0.112898 0.448174 0.65198  0.0925940869565
 H2 0.612565 0.447945 0.65196  0.0925940869565
 H2 0.426568 0.884054 0.95581  0.0925940869565
 H2 0.926869 0.884061 0.95546  0.0925940869565
 H2 0.047724 0.500534 0.74101  0.0925940869565
 H2 0.547216 0.500049 0.74091  0.0925940869565
 H2 0.473812 0.48937 0.7093  0.0925940869565
 H2 0.97436 0.490212 0.70947  0.0925940869565
 H2 0.079084 0.273149 0.63651  0.0925940869565
 H2 0.579039 0.272879 0.63669  0.0925940869565
 H2 0.006711 0.270798 0.60456  0.0925940869565
 H2 0.506608 0.27015 0.60468  0.0925940869565
 H2 0.442078 0.31762 0.70228  0.0925940869565
 H2 0.942332 0.318452 0.70231  0.0925940869565
 H2 0.472208 0.352341 0.79589  0.0925940869565
 H2 0.972557 0.352996 0.79591  0.0925940869565
 H3 0.003085 0.232178 0.74260  0.29697442029
 H3 0.503033 0.231777 0.74274  0.29697442029
 H3 0.063715 0.324585 0.75682  0.29697442029
 H3 0.563562 0.324449 0.75689  0.29697442029
 H1 0.228016 0.470346 0.25592  0.418621086957
 H1 0.728504 0.470796 0.25576  0.418621086957
 H2 0.14569 0.734677 0.2415  0.0925940869565
 H2 0.645899 0.734515 0.24202  0.0925940869565
 H3 0.257067 0.068644 0.08950  0.29697442029
 H3 0.756781 0.067751 0.08955  0.29697442029
 H2 0.163665 0.084422 0.05622  0.0925940869565
 H2 0.663526 0.083925 0.05592  0.0925940869565
 H2 0.137755 0.052465 0.15229  0.0925940869565
 H2 0.637459 0.052191 0.15196  0.0925940869565
 H2 0.322892 0.615558 0.45521  0.0925940869565
 H2 0.823317 0.616316 0.45586  0.0925940869565
 H2 0.203113 0.99984 0.24108  0.0925940869565
 H2 0.70243 0.999327 0.24101  0.0925940869565
 H2 0.276513 0.010708 0.20935  0.0925940869565
 H2 0.775822 0.009743 0.20961  0.0925940869565
 H2 0.171302 0.227568 0.13716  0.0925940869565
 H2 0.671304 0.227285 0.13662  0.0925940869565
 H2 0.243741 0.230447 0.10506  0.0925940869565
 H2 0.74373 0.229782 0.10478  0.0925940869565
 H2 0.308225 0.182452 0.2024  0.0925940869565
 H2 0.807889 0.181512 0.20249  0.0925940869565
 H2 0.278117 0.147321 0.29610  0.0925940869565
 H2 0.777593 0.146652 0.29608  0.0925940869565
 H3 0.247265 0.26819 0.24317  0.29697442029
 H3 0.74707 0.267688 0.24281  0.29697442029
 H3 0.186742 0.175347 0.25722  0.29697442029
 H3 0.686457 0.175205 0.25689  0.29697442029
 C1 0.031133 0.242486 0.29372  -0.0242464130435
 C1 0.53148 0.24286 0.29367  -0.0242464130435
 C2 0.440972 0.247978 0.27974  0.303021086957
 C2 0.940577 0.24751 0.27983  0.303021086957
 C3 0.056378 0.367132 0.41120  0.661446086957
 C3 0.556841 0.36766 0.4109  0.661446086957
 C1 0.022577 0.306801 0.34710  -0.0242464130435
 C1 0.522964 0.307308 0.34696  -0.0242464130435
 C3 0.443403 0.141546 0.86265  0.661446086957
 C3 0.943183 0.141494 0.86277  0.661446086957
 C1 0.463856 0.130452 0.94145  -0.0242464130435
 C1 0.963563 0.130232 0.9415  -0.0242464130435
 C4 0.42702 0.587801 0.38374  -0.0391939130435
 C4 0.926717 0.587298 0.38373  -0.0391939130435
 C3 0.079574 0.205012 0.27262  0.661446086957
 C3 0.579911 0.205383 0.27263  0.661446086957
 C2 0.03154 0.119949 0.02235  0.303021086957
 C2 0.531863 0.120055 0.02208  0.303021086957
 C4 0.491076 0.542402 0.29441  -0.0391939130435
 C4 0.990599 0.54171 0.29434  -0.0391939130435
 C4 0.454267 0.691653 0.35974  -0.0391939130435
 C4 0.95414 0.691195 0.35986  -0.0391939130435
 C4 0.01654 0.643548 0.26556  -0.0391939130435
 C4 0.516835 0.644196 0.26555  -0.0391939130435
 C3 0.383824 0.12111 0.05486  0.661446086957
 C3 0.883317 0.120435 0.05484  0.661446086957
 C1 0.440143 0.12196 0.0163  -0.0242464130435
 C1 0.939751 0.12162 0.01639  -0.0242464130435
 C1 0.218752 0.25714 0.79372  -0.0242464130435
 C1 0.718983 0.257452 0.79384  -0.0242464130435
 C2 0.309263 0.252024 0.77976  0.303021086957
 C2 0.809435 0.251981 0.78007  0.303021086957
 C3 0.193452 0.132371 0.91129  0.661446086957
 C3 0.693314 0.13216 0.91110  0.661446086957
 C1 0.227299 0.192694 0.84712  -0.0242464130435
 C1 0.727291 0.192639 0.84709  -0.0242464130435
 C3 0.306793 0.358339 0.36260  0.661446086957
 C3 0.80657 0.357931 0.36296  0.661446086957
 C1 0.286327 0.369488 0.44135  -0.0242464130435
 C1 0.786474 0.369548 0.44180  -0.0242464130435
 C4 0.322882 0.912035 0.88367  -0.0391939130435
 C4 0.822676 0.911563 0.8834  -0.0391939130435
 C3 0.170328 0.29467 0.77264  0.661446086957
 C3 0.670663 0.295203 0.77265  0.661446086957
 C2 0.218322 0.379757 0.52202  0.303021086957
 C2 0.718666 0.380285 0.52259  0.303021086957
 C4 0.259157 0.958128 0.79422  -0.0391939130435
 C4 0.758618 0.957429 0.79425  -0.0391939130435
 C4 0.295504 0.808281 0.85969  -0.0391939130435
 C4 0.795406 0.807831 0.85935  -0.0391939130435
 C4 0.233264 0.856439 0.76534  -0.0391939130435
 C4 0.732858 0.855766 0.76531  -0.0391939130435
 C3 0.366444 0.378959 0.55472  0.661446086957
 C3 0.86678 0.379388 0.55509  0.661446086957
 C1 0.310061 0.377952 0.51620  -0.0242464130435
 C1 0.810342 0.378192 0.51661  -0.0242464130435
 C1 0.468551 0.757129 0.7063  -0.0242464130435
 C1 0.968874 0.757459 0.70628  -0.0242464130435
 C2 0.059422 0.752401 0.72016  0.303021086957
 C2 0.559046 0.751955 0.72026  0.303021086957
 C3 0.44315 0.632289 0.58906  0.661446086957
 C3 0.94359 0.632753 0.58884  0.661446086957
 C1 0.477042 0.692646 0.65306  -0.0242464130435
 C1 0.977413 0.693109 0.65292  -0.0242464130435
 C3 0.056824 0.858476 0.13724  0.661446086957
 C3 0.55661 0.858414 0.13735  0.661446086957
 C1 0.036445 0.869741 0.05843  -0.0242464130435
 C1 0.536166 0.869517 0.05855  -0.0242464130435
 C4 0.073273 0.412585 0.61630  -0.0391939130435
 C4 0.572969 0.412112 0.61630  -0.0391939130435
 C3 0.420131 0.794634 0.72738  0.661446086957
 C3 0.920439 0.794943 0.7273  0.661446086957
 C2 0.468169 0.879928 0.97791  0.303021086957
 C2 0.968467 0.880017 0.97766  0.303021086957
 C4 0.009375 0.458159 0.70569  -0.0391939130435
 C4 0.508899 0.457483 0.70563  -0.0391939130435
 C4 0.045868 0.308696 0.64018  -0.0391939130435
 C4 0.545731 0.308259 0.64028  -0.0391939130435
 C4 0.48315 0.355687 0.73448  -0.0391939130435
 C4 0.983454 0.35633 0.73448  -0.0391939130435
 C3 0.11669 0.879534 0.94518  0.661446086957
 C3 0.616204 0.878865 0.94515  0.661446086957
 C1 0.060257 0.878352 0.98362  -0.0242464130435
 C1 0.559885 0.878014 0.98370  -0.0242464130435
 C1 0.281036 0.742555 0.20619  -0.0242464130435
 C1 0.781263 0.74286 0.20629  -0.0242464130435
 C2 0.190587 0.748042 0.21995  0.303021086957
 C2 0.690752 0.747979 0.22025  0.303021086957
 C3 0.30671 0.867845 0.08892  0.661446086957
 C3 0.806559 0.867614 0.08871  0.661446086957
 C1 0.272732 0.807375 0.15294  -0.0242464130435
 C1 0.772715 0.807301 0.15288  -0.0242464130435
 C3 0.193411 0.642012 0.63706  0.661446086957
 C3 0.693189 0.641624 0.63740  0.661446086957
 C1 0.213517 0.630416 0.55822  -0.0242464130435
 C1 0.71365 0.630446 0.55865  -0.0242464130435
 C4 0.177349 0.088433 0.11660  -0.0391939130435
 C4 0.677126 0.087948 0.11633  -0.0391939130435
 C3 0.329352 0.704792 0.22736  0.661446086957
 C3 0.829683 0.70532 0.22738  0.661446086957
 C2 0.281342 0.619749 0.47742  0.303021086957
 C2 0.781682 0.620274 0.47799  0.303021086957
 C4 0.241412 0.042586 0.20576  -0.0391939130435
 C4 0.740848 0.041859 0.20579  -0.0391939130435
 C4 0.204607 0.192165 0.14066  -0.0391939130435
 C4 0.704506 0.191704 0.14031  -0.0391939130435
 C4 0.267158 0.144249 0.2347  -0.0391939130435
 C4 0.766742 0.14355 0.23466  -0.0391939130435
 C3 0.133191 0.620482 0.44494  0.661446086957
 C3 0.633502 0.620798 0.44527  0.661446086957
 C1 0.189648 0.621757 0.48340  -0.0242464130435
 C1 0.689912 0.621948 0.48380  -0.0242464130435
 N1 0.478631 0.206408 0.25239  -0.419946413043
 N1 0.978271 0.206078 0.25241  -0.419946413043
 N1 0.021271 0.129101 0.94759  -0.419946413043
 N1 0.521528 0.12921 0.9473  -0.419946413043
 N1 0.465709 0.308775 0.33687  -0.419946413043
 N1 0.965283 0.308169 0.33703  -0.419946413043
 N2 0.470147 0.53675 0.37511  -0.421538913043
 N2 0.969657 0.535917 0.37504  -0.421538913043
 N3 0.474724 0.69753 0.27795  -0.142758913043
 N3 0.974578 0.697162 0.2780  -0.142758913043
 N1 0.48436 0.115759 0.06537  -0.419946413043
 N1 0.983948 0.11553 0.0655  -0.419946413043
 N1 0.271583 0.293552 0.75234  -0.419946413043
 N1 0.771926 0.293849 0.75266  -0.419946413043
 N1 0.228614 0.37058 0.44727  -0.419946413043
 N1 0.728841 0.37091 0.44784  -0.419946413043
 N1 0.284547 0.19123 0.8370  -0.419946413043
 N1 0.784502 0.19098 0.83711  -0.419946413043
 N2 0.279923 0.963402 0.87497  -0.421538913043
 N2 0.779568 0.962695 0.87492  -0.421538913043
 N3 0.275198 0.802771 0.77785  -0.142758913043
 N3 0.774959 0.802357 0.77758  -0.142758913043
 N1 0.265869 0.384171 0.56528  -0.419946413043
 N1 0.766256 0.384623 0.56574  -0.419946413043
 N1 0.021743 0.793871 0.74757  -0.419946413043
 N1 0.521407 0.79357 0.74760  -0.419946413043
 N1 0.478497 0.870767 0.05265  -0.419946413043
 N1 0.978735 0.870868 0.05242  -0.419946413043
 N1 0.034701 0.691712 0.66298  -0.419946413043
 N1 0.534291 0.691146 0.66315  -0.419946413043
 N2 0.030305 0.463915 0.6249  -0.421538913043
 N2 0.529827 0.463134 0.62493  -0.421538913043
 N3 0.025428 0.302743 0.72199  -0.142758913043
 N3 0.525272 0.302375 0.72207  -0.142758913043
 N1 0.016059 0.884435 0.93448  -0.419946413043
 N1 0.515674 0.884221 0.93462  -0.419946413043
 N1 0.228092 0.706163 0.2473  -0.419946413043
 N1 0.728432 0.706453 0.24768  -0.419946413043
 N1 0.271163 0.629112 0.55217  -0.419946413043
 N1 0.77138 0.629434 0.55273  -0.419946413043
 N1 0.215522 0.809039 0.16292  -0.419946413043
 N1 0.715468 0.808765 0.16299  -0.419946413043
 N2 0.220464 0.037312 0.12509  -0.421538913043
 N2 0.720083 0.036577 0.12504  -0.421538913043
 N3 0.225047 0.197641 0.22243  -0.142758913043
 N3 0.724809 0.19722 0.22215  -0.142758913043
 N1 0.233745 0.615373 0.43428  -0.419946413043
 N1 0.734126 0.615801 0.43473  -0.419946413043
 O1 0.442498 0.970874 0.2162  -0.922788913043
 O1 0.94281 0.970789 0.21629  -0.922788913043
 O2 0.066706 0.139297 0.22321  -0.587488913043
 O2 0.567151 0.139733 0.22312  -0.587488913043
 O3 0.110307 0.37485 0.42660  -0.616423198758
 O3 0.610652 0.374942 0.42653  -0.616423198758
 O3 0.027785 0.408543 0.45101  -0.616423198758
 O3 0.528394 0.409499 0.45065  -0.616423198758
 O3 0.339645 0.130516 0.01738  -0.616423198758
 O3 0.83912 0.129611 0.01729  -0.616423198758
 O3 0.132399 0.238266 0.30352  -0.616423198758
 O3 0.632683 0.238546 0.30361  -0.616423198758
 O3 0.391535 0.144732 0.84967  -0.616423198758
 O3 0.891261 0.144425 0.84979  -0.616423198758
 O2 0.481827 0.148973 0.80887  -0.587488913043
 O2 0.981746 0.149365 0.80907  -0.587488913043
 O3 0.38233 0.113055 0.12756  -0.616423198758
 O3 0.881685 0.112322 0.12757  -0.616423198758
 O1 0.306913 0.528734 0.71620  -0.922788913043
 O1 0.807567 0.529286 0.71640  -0.922788913043
 O2 0.183112 0.360396 0.72307  -0.587488913043
 O2 0.683727 0.361279 0.72341  -0.587488913043
 O3 0.139566 0.124856 0.92667  -0.616423198758
 O3 0.639542 0.125071 0.92669  -0.616423198758
 O3 0.221986 0.090828 0.95120  -0.616423198758
 O3 0.721554 0.089915 0.95075  -0.616423198758
 O3 0.410521 0.369202 0.51728  -0.616423198758
 O3 0.910802 0.369552 0.5176  -0.616423198758
 O3 0.117558 0.261554 0.80369  -0.616423198758
 O3 0.617737 0.261825 0.8033  -0.616423198758
 O3 0.358683 0.355229 0.34970  -0.616423198758
 O3 0.85835 0.354558 0.34967  -0.616423198758
 O2 0.268412 0.351077 0.30879  -0.587488913043
 O2 0.767991 0.350388 0.30936  -0.587488913043
 O3 0.367995 0.3871 0.6274  -0.616423198758
 O3 0.868562 0.387984 0.62776  -0.616423198758
 O1 0.057194 0.029172 0.78373  -0.922788913043
 O1 0.557552 0.029132 0.78375  -0.922788913043
 O2 0.432915 0.860305 0.77687  -0.587488913043
 O2 0.933307 0.860636 0.77682  -0.587488913043
 O3 0.389351 0.625065 0.57349  -0.616423198758
 O3 0.889682 0.625138 0.5734  -0.616423198758
 O3 0.471571 0.59038 0.54941  -0.616423198758
 O3 0.972138 0.591219 0.5490  -0.616423198758
 O3 0.160892 0.870376 0.98272  -0.616423198758
 O3 0.660379 0.869442 0.98262  -0.616423198758
 O3 0.36735 0.761468 0.69642  -0.616423198758
 O3 0.867613 0.761721 0.6964  -0.616423198758
 O3 0.108756 0.855584 0.15023  -0.616423198758
 O3 0.608484 0.855255 0.15034  -0.616423198758
 O2 0.018255 0.850566 0.19095  -0.587488913043
 O2 0.518178 0.850957 0.19113  -0.587488913043
 O3 0.118317 0.887632 0.87245  -0.616423198758
 O3 0.617705 0.88694 0.87244  -0.616423198758
 O1 0.192424 0.470717 0.28361  -0.922788913043
 O1 0.693091 0.471266 0.28380  -0.922788913043
 O2 0.31628 0.638696 0.27659  -0.587488913043
 O2 0.816891 0.639593 0.27694  -0.587488913043
 O3 0.360482 0.874937 0.07333  -0.616423198758
 O3 0.86045 0.87515 0.07334  -0.616423198758
 O3 0.278468 0.910087 0.04927  -0.616423198758
 O3 0.778016 0.90913 0.04878  -0.616423198758
 O3 0.089135 0.630176 0.48241  -0.616423198758
 O3 0.589334 0.630242 0.48270  -0.616423198758
 O3 0.38228 0.738178 0.1966  -0.616423198758
 O3 0.882454 0.738429 0.19633  -0.616423198758
 O3 0.141614 0.645313 0.65034  -0.616423198758
 O3 0.6413 0.644739 0.65030  -0.616423198758
 O2 0.231999 0.649598 0.6906  -0.587488913043
 O2 0.731576 0.648922 0.69121  -0.587488913043
 O3 0.131419 0.611943 0.37226  -0.616423198758
 O3 0.631998 0.612801 0.37257  -0.616423198758
