#======================================================================

# CRYSTAL DATA

#----------------------------------------------------------------------

data_VESTA_phase_1


_pd_phase_name                         MOF
_cell_length_a                         15.63600
_cell_length_b                         16.19400
_cell_length_c                         23.64100
_cell_angle_alpha                      90.03700
_cell_angle_beta                       89.98000
_cell_angle_gamma                      118.76400
_symmetry_space_group_name_H-M         "P 1"
_symmetry_Int_Tables_number            1

loop_
_symmetry_equiv_pos_as_xyz
   "x, y, z"

loop_
   _atom_site_label
   _atom_site_fract_x
   _atom_site_fract_y
   _atom_site_fract_z
 _atom_site_charge
 Cu1 0.529154 0.442318 0.4999  0.884582272727
 Cu1 0.470808 0.557703 0.50004  0.884582272727
 Cu1 0.91326 0.442322 0.99999  0.884582272727
 Cu1 0.086711 0.557697 0.  0.884582272727
 H1 0.649402 0.753591 0.62907  0.117310022727
 H1 0.769268 0.84371 0.70470  0.117310022727
 H1 0.87787 0.644553 0.69909  0.117310022727
 H1 0.757201 0.554826 0.6238  0.117310022727
 H1 0.958015 0.912916 0.65872  0.117310022727
 H1 0.350708 0.246324 0.62888  0.117310022727
 H1 0.230873 0.15612 0.70448  0.117310022727
 H1 0.12202 0.355084 0.69911  0.117310022727
 H1 0.242673 0.444907 0.62388  0.117310022727
 H1 0.042189 0.08656 0.6586  0.117310022727
 H1 0.10392 0.753308 0.87083  0.117310022727
 H1 0.074177 0.843426 0.7951  0.117310022727
 H1 0.76691 0.644716 0.80061  0.117310022727
 H1 0.797831 0.55514 0.87605  0.117310022727
 H1 0.955214 0.913213 0.84096  0.117310022727
 H1 0.896091 0.246594 0.87075  0.117310022727
 H1 0.925877 0.156398 0.79502  0.117310022727
 H1 0.233147 0.355071 0.80058  0.117310022727
 H1 0.202189 0.444729 0.87605  0.117310022727
 H1 0.044988 0.086816 0.84092  0.117310022727
 H1 0.351238 0.24718 0.37051  0.117310022727
 H1 0.231108 0.156781 0.29503  0.117310022727
 H1 0.121392 0.355035 0.30122  0.117310022727
 H1 0.241867 0.44468 0.37661  0.117310022727
 H1 0.041958 0.08713 0.34132  0.117310022727
 H1 0.648651 0.752991 0.37071  0.117310022727
 H1 0.768761 0.843467 0.29528  0.117310022727
 H1 0.878694 0.64538 0.30123  0.117310022727
 H1 0.758227 0.555651 0.37658  0.117310022727
 H1 0.957879 0.913474 0.3413  0.117310022727
 H1 0.896019 0.246701 0.12913  0.117310022727
 H1 0.925701 0.156553 0.20483  0.117310022727
 H1 0.23295 0.355354 0.19951  0.117310022727
 H1 0.2021 0.444942 0.12404  0.117310022727
 H1 0.044686 0.086802 0.15908  0.117310022727
 H1 0.103938 0.753461 0.12921  0.117310022727
 H1 0.074223 0.843682 0.2049  0.117310022727
 H1 0.766975 0.644894 0.1995  0.117310022727
 H1 0.797857 0.555234 0.12407  0.117310022727
 H1 0.955045 0.913192 0.15913  0.117310022727
 C1 0.623907 0.59448 0.57674  0.685309772727
 C2 0.695635 0.648488 0.62168  -0.162946477273
 C3 0.700047 0.730508 0.64454  -0.116814227273
 C3 0.766805 0.78061 0.68679  -0.116814227273
 C4 0.831393 0.749917 0.70697  0.162417272727
 C3 0.827419 0.668069 0.68386  -0.116814227273
 C3 0.760089 0.617925 0.64198  -0.116814227273
 C3 0.976407 0.950863 0.69876  -0.116814227273
 C1 0.376085 0.405412 0.57671  0.685309772727
 C2 0.304373 0.351356 0.62163  -0.162946477273
 C3 0.300013 0.269345 0.64440  -0.116814227273
 C3 0.233275 0.219198 0.68663  -0.116814227273
 C4 0.16863 0.249818 0.70687  0.162417272727
 C3 0.172525 0.331634 0.68384  -0.116814227273
 C3 0.239838 0.381827 0.64197  -0.116814227273
 C3 0.023804 0.048739 0.69874  -0.116814227273
 C1 0.970589 0.594639 0.92325  0.685309772727
 C2 0.952809 0.648524 0.87822  -0.162946477273
 C3 0.030305 0.730339 0.85532  -0.116814227273
 C3 0.01365 0.780427 0.81303  -0.116814227273
 C4 0.918494 0.749864 0.79279  0.162417272727
 C3 0.840759 0.668172 0.81590  -0.116814227273
 C3 0.857934 0.618092 0.8578  -0.116814227273
 C3 0.974768 0.951025 0.80089  -0.116814227273
 C1 0.029414 0.405264 0.92325  0.685309772727
 C2 0.047202 0.351372 0.87817  -0.162946477273
 C3 0.969718 0.269524 0.85525  -0.116814227273
 C3 0.986392 0.219416 0.8129  -0.116814227273
 C4 0.081568 0.249923 0.79274  0.162417272727
 C3 0.159288 0.33165 0.81586  -0.116814227273
 C3 0.142098 0.381754 0.85786  -0.116814227273
 C3 0.025436 0.048883 0.80087  -0.116814227273
 C1 0.375927 0.40566 0.42326  0.685309772727
 C2 0.304223 0.351661 0.37831  -0.162946477273
 C3 0.300231 0.26995 0.35523  -0.116814227273
 C3 0.233373 0.21973 0.31305  -0.116814227273
 C4 0.168441 0.250131 0.29307  0.162417272727
 C3 0.172066 0.331723 0.31634  -0.116814227273
 C3 0.239307 0.38184 0.35827  -0.116814227273
 C3 0.023573 0.049172 0.30128  -0.116814227273
 C1 0.623999 0.594488 0.42329  0.685309772727
 C2 0.695752 0.648571 0.37839  -0.162946477273
 C3 0.699699 0.730272 0.355  -0.116814227273
 C3 0.766552 0.78054 0.31324  -0.116814227273
 C4 0.831525 0.750195 0.29319  0.162417272727
 C3 0.827977 0.668641 0.31640  -0.116814227273
 C3 0.760737 0.618473 0.35831  -0.116814227273
 C3 0.976232 0.951295 0.30131  -0.116814227273
 C1 0.029381 0.405387 0.07675  0.685309772727
 C2 0.047127 0.351529 0.12181  -0.162946477273
 C3 0.969619 0.269671 0.14467  -0.116814227273
 C3 0.986234 0.219582 0.18697  -0.116814227273
 C4 0.081373 0.250147 0.2072  0.162417272727
 C3 0.159117 0.331896 0.18419  -0.116814227273
 C3 0.141985 0.381966 0.14219  -0.116814227273
 C3 0.025172 0.048994 0.19915  -0.116814227273
 C1 0.970588 0.594749 0.07678  0.685309772727
 C2 0.952826 0.648657 0.1218  -0.162946477273
 C3 0.030335 0.730509 0.14475  -0.116814227273
 C3 0.013697 0.78065 0.18706  -0.116814227273
 C4 0.918552 0.750089 0.20733  0.162417272727
 C3 0.84081 0.668342 0.1842  -0.116814227273
 C3 0.857963 0.618219 0.14224  -0.116814227273
 C3 0.974579 0.951136 0.19918  -0.116814227273
 C4 0.950221 0.900327 0.74984  0.162417272727
 C4 0.049961 0.099429 0.749  0.162417272727
 C4 0.049697 0.099699 0.25020  0.162417272727
 C4 0.950107 0.9006 0.25026  0.162417272727
 N1 0.900181 0.800366 0.74987  -0.119167727273
 N1 0.099909 0.199387 0.74979  -0.119167727273
 N1 0.099658 0.199654 0.25017  -0.119167727273
 N1 0.900238 0.800648 0.25027  -0.119167727273
 O1 0.620999 0.517771 0.5601  -0.575587727273
 O1 0.570429 0.628504 0.55801  -0.575587727273
 O1 0.378983 0.482135 0.5602  -0.575587727273
 O1 0.429661 0.37148 0.55795  -0.575587727273
 O1 0.896524 0.519338 0.94091  -0.575587727273
 O1 0.058492 0.62732 0.94090  -0.575587727273
 O1 0.103468 0.480607 0.94090  -0.575587727273
 O1 0.9415 0.372622 0.94088  -0.575587727273
 O1 0.375147 0.479553 0.44209  -0.575587727273
 O1 0.433216 0.374512 0.43967  -0.575587727273
 O1 0.624823 0.52061 0.44205  -0.575587727273
 O1 0.566676 0.625591 0.43975  -0.575587727273
 O1 0.103447 0.480701 0.05910  -0.575587727273
 O1 0.941476 0.372725 0.0591  -0.575587727273
 O1 0.896518 0.519439 0.05910  -0.575587727273
 O1 0.05849 0.62741 0.05912  -0.575587727273
