#======================================================================

# CRYSTAL DATA

#----------------------------------------------------------------------

data_VESTA_phase_1


_pd_phase_name                         MOF
_cell_length_a                         18.87600
_cell_length_b                         20.39800
_cell_length_c                         19.19200
_cell_angle_alpha                      90.08200
_cell_angle_beta                       90.08600
_cell_angle_gamma                      90.22500
_symmetry_space_group_name_H-M         "P 1"
_symmetry_Int_Tables_number            1

loop_
_symmetry_equiv_pos_as_xyz
   "x, y, z"

loop_
   _atom_site_label
   _atom_site_fract_x
   _atom_site_fract_y
   _atom_site_fract_z
 _atom_site_charge
 Cd1 0.05874 0.359777 0.7339  1.006400625
 Cd1 0.559487 0.359289 0.73414  1.006400625
 Cd2 0.16131 0.883342 0.28767  0.947210625
 Cd2 0.662252 0.883004 0.28692  0.947210625
 Cd1 0.44154 0.641012 0.23499  1.006400625
 Cd1 0.939584 0.641586 0.23487  1.006400625
 Cd2 0.337784 0.116898 0.78698  0.947210625
 Cd1 0.837698 0.117294 0.78635  1.006400625
 Cd1 0.190311 0.859835 0.73415  1.006400625
 Cd1 0.690704 0.859134 0.73451  1.006400625
 Cd2 0.08487 0.383022 0.28648  0.947210625
 Cd2 0.587648 0.382194 0.28738  0.947210625
 Cd1 0.308463 0.14136 0.23481  1.006400625
 Cd1 0.808843 0.141018 0.23494  1.006400625
 Cd2 0.412282 0.618033 0.78656  0.947210625
 Cd2 0.912088 0.617828 0.78664  0.947210625
 H1 0.158655 0.709329 0.60120  0.430783958333
 H1 0.656326 0.709414 0.60152  0.430783958333
 H1 0.115692 0.528115 0.41732  0.430783958333
 H1 0.616542 0.527909 0.41755  0.430783958333
 H2 0.115462 0.570024 0.08517  0.09606515625
 H2 0.615429 0.57028 0.08501  0.09606515625
 H2 0.18809 0.46979 0.06507  0.09606515625
 H2 0.688046 0.469961 0.06537  0.09606515625
 H2 0.167312 0.40217 0.95821  0.09606515625
 H2 0.66748 0.402114 0.95861  0.09606515625
 H2 0.115781 0.679721 0.92003  0.09606515625
 H2 0.61591 0.679568 0.91926  0.09606515625
 H2 0.199756 0.772894 0.93676  0.09606515625
 H2 0.700577 0.77225 0.93578  0.09606515625
 H2 0.194865 0.839612 0.04610  0.09606515625
 H2 0.696613 0.838802 0.04528  0.09606515625
 H2 0.032385 0.506142 0.71326  0.09606515625
 H2 0.532342 0.505463 0.71333  0.09606515625
 H2 0.038382 0.592321 0.62158  0.09606515625
 H2 0.537833 0.591821 0.62179  0.09606515625
 H2 0.181749 0.467523 0.50801  0.09606515625
 H2 0.68183 0.46786 0.50799  0.09606515625
 H2 0.165206 0.383143 0.60151  0.09606515625
 H2 0.665832 0.383294 0.60134  0.09606515625
 H2 0.061639 0.604151 0.48796  0.09606515625
 H2 0.560858 0.603443 0.48764  0.09606515625
 H2 0.215091 0.631697 0.53009  0.09606515625
 H2 0.713464 0.632857 0.53133  0.09606515625
 H2 0.068988 0.749733 0.50479  0.09606515625
 H2 0.568012 0.750597 0.50389  0.09606515625
 H2 0.066935 0.831392 0.40686  0.09606515625
 H2 0.566997 0.831932 0.40563  0.09606515625
 H2 0.242704 0.746027 0.31477  0.09606515625
 H2 0.742687 0.745224 0.31480  0.09606515625
 H2 0.249335 0.660045 0.40562  0.09606515625
 H2 0.748251 0.659571 0.40594  0.09606515625
 H1 0.020982 0.944724 0.29037  0.430783958333
 H1 0.522191 0.94494 0.28943  0.430783958333
 H1 0.030835 0.878064 0.24546  0.430783958333
 H1 0.532129 0.878139 0.24474  0.430783958333
 H1 0.341318 0.291268 0.10140  0.430783958333
 H1 0.843631 0.291259 0.10158  0.430783958333
 H1 0.383744 0.472235 0.91758  0.430783958333
 H1 0.883563 0.472197 0.91746  0.430783958333
 H2 0.382783 0.429818 0.58436  0.09606515625
 H2 0.882304 0.430735 0.58475  0.09606515625
 H2 0.310838 0.53048 0.56461  0.09606515625
 H2 0.80955 0.530977 0.56532  0.09606515625
 H2 0.332642 0.598671 0.45862  0.09606515625
 H2 0.830109 0.59907 0.45906  0.09606515625
 H2 0.382284 0.320421 0.41972  0.09606515625
 H2 0.88186 0.321657 0.41891  0.09606515625
 H2 0.297735 0.227795 0.43629  0.09606515625
 H2 0.797614 0.228715 0.43517  0.09606515625
 H2 0.302202 0.16143 0.54571  0.09606515625
 H2 0.802141 0.162201 0.54448  0.09606515625
 H2 0.468261 0.494591 0.21372  0.09606515625
 H2 0.96778 0.495481 0.21369  0.09606515625
 H2 0.461968 0.408254 0.1219  0.09606515625
 H2 0.962735 0.409119 0.12183  0.09606515625
 H2 0.318013 0.532709 0.0086  0.09606515625
 H2 0.817389 0.532128 0.00847  0.09606515625
 H2 0.334744 0.617222 0.10228  0.09606515625
 H2 0.832973 0.616759 0.10214  0.09606515625
 H2 0.438398 0.396251 0.98834  0.09606515625
 H2 0.939171 0.396896 0.98801  0.09606515625
 H2 0.285057 0.368528 0.0302  0.09606515625
 H2 0.786482 0.367733 0.03112  0.09606515625
 H2 0.430993 0.250439 0.00449  0.09606515625
 H2 0.932126 0.249962 0.00402  0.09606515625
 H2 0.432666 0.168764 0.9063  0.09606515625
 H2 0.933151 0.168461 0.90569  0.09606515625
 H2 0.256819 0.254367 0.81439  0.09606515625
 H2 0.757125 0.254647 0.81468  0.09606515625
 H2 0.250535 0.340349 0.9054  0.09606515625
 H2 0.751417 0.340411 0.90605  0.09606515625
 H1 0.477984 0.055297 0.78913  0.430783958333
 H1 0.977492 0.055057 0.7867  0.430783958333
 H1 0.467704 0.122037 0.74457  0.430783958333
 H1 0.967354 0.121888 0.74219  0.430783958333
 H1 0.093516 0.210784 0.60122  0.430783958333
 H1 0.591249 0.208743 0.60184  0.430783958333
 H1 0.133624 0.029014 0.41809  0.430783958333
 H1 0.633726 0.027778 0.41807  0.430783958333
 H2 0.133255 0.070284 0.08464  0.09606515625
 H2 0.633764 0.070357 0.08452  0.09606515625
 H2 0.06004 0.969835 0.06470  0.09606515625
 H2 0.560614 0.969841 0.06471  0.09606515625
 H2 0.08059 0.901765 0.95832  0.09606515625
 H2 0.581151 0.901713 0.95836  0.09606515625
 H2 0.133875 0.179246 0.91900  0.09606515625
 H2 0.633952 0.179225 0.9191  0.09606515625
 H2 0.04954 0.271554 0.93522  0.09606515625
 H2 0.549461 0.271346 0.93568  0.09606515625
 H2 0.053105 0.33766 0.04507  0.09606515625
 H2 0.553274 0.337452 0.04554  0.09606515625
 H2 0.217177 0.0 0.71424  0.09606515625
 H2 0.717671 0.0 0.71392  0.09606515625
 H2 0.21159 0.093437 0.62306  0.09606515625
 H2 0.711481 0.09239 0.62262  0.09606515625
 H2 0.068567 0.968196 0.50785  0.09606515625
 H2 0.568134 0.966824 0.5082  0.09606515625
 H2 0.084744 0.883494 0.60088  0.09606515625
 H2 0.584797 0.882266 0.60139  0.09606515625
 H2 0.189169 0.10513 0.48865  0.09606515625
 H2 0.688299 0.104336 0.48885  0.09606515625
 H2 0.036471 0.132999 0.53191  0.09606515625
 H2 0.534944 0.130869 0.53071  0.09606515625
 H2 0.181088 0.252393 0.5036  0.09606515625
 H2 0.680368 0.250453 0.50556  0.09606515625
 H2 0.180811 0.333629 0.40529  0.09606515625
 H2 0.682013 0.331998 0.40751  0.09606515625
 H2 0.005132 0.244421 0.31523  0.09606515625
 H2 0.506977 0.244167 0.3147  0.09606515625
 H2 0.000858 0.158818 0.40647  0.09606515625
 H2 0.50084 0.158266 0.40565  0.09606515625
 H1 0.224481 0.44727 0.28837  0.430783958333
 H1 0.727951 0.444877 0.28987  0.430783958333
 H1 0.215617 0.379584 0.24478  0.430783958333
 H1 0.717743 0.378062 0.24510  0.430783958333
 H1 0.406339 0.791331 0.10202  0.430783958333
 H1 0.906058 0.791351 0.10207  0.430783958333
 H1 0.366354 0.972201 0.91822  0.430783958333
 H1 0.866464 0.972205 0.91807  0.430783958333
 H2 0.367453 0.931317 0.58463  0.09606515625
 H2 0.867273 0.930706 0.5849  0.09606515625
 H2 0.439987 0.03209 0.56469  0.09606515625
 H2 0.940071 0.031355 0.565  0.09606515625
 H2 0.418123 0.100176 0.45872  0.09606515625
 H2 0.918833 0.099257 0.45891  0.09606515625
 H2 0.366313 0.821939 0.41957  0.09606515625
 H2 0.866527 0.821566 0.41983  0.09606515625
 H2 0.450415 0.729484 0.43588  0.09606515625
 H2 0.950676 0.729136 0.43602  0.09606515625
 H2 0.446524 0.663356 0.54553  0.09606515625
 H2 0.946515 0.662631 0.54538  0.09606515625
 H2 0.281123 0.994596 0.21379  0.09606515625
 H2 0.781097 0.994504 0.21359  0.09606515625
 H2 0.287204 0.908101 0.1222  0.09606515625
 H2 0.787002 0.908094 0.12200  0.09606515625
 H2 0.431435 0.03312 0.00910  0.09606515625
 H2 0.931579 0.032952 0.00902  0.09606515625
 H2 0.414844 0.117739 0.10240  0.09606515625
 H2 0.91511 0.117527 0.10240  0.09606515625
 H2 0.310666 0.89636 0.98827  0.09606515625
 H2 0.810669 0.896305 0.98804  0.09606515625
 H2 0.463341 0.868449 0.03190  0.09606515625
 H2 0.963308 0.868366 0.0318  0.09606515625
 H2 0.317877 0.749375 0.00446  0.09606515625
 H2 0.818052 0.749118 0.00473  0.09606515625
 H2 0.316912 0.66801 0.90596  0.09606515625
 H2 0.816971 0.667645 0.90635  0.09606515625
 H2 0.492489 0.756092 0.81530  0.09606515625
 H2 0.992135 0.755922 0.81511  0.09606515625
 H2 0.497994 0.841822 0.9066  0.09606515625
 H2 0.997769 0.841721 0.90639  0.09606515625
 H1 0.271789 0.555457 0.78785  0.430783958333
 H1 0.772655 0.553467 0.78790  0.430783958333
 H1 0.282006 0.623066 0.74480  0.430783958333
 H1 0.781992 0.620868 0.74432  0.430783958333
 C1 0.086056 0.464775 0.91814  -0.0238997916667
 C1 0.586396 0.464682 0.91819  -0.0238997916667
 C1 0.046403 0.522601 0.92823  -0.0238997916667
 C1 0.546697 0.522548 0.92801  -0.0238997916667
 C2 0.057425 0.560253 0.98892  0.020345625
 C2 0.55762 0.560306 0.98865  0.020345625
 C3 0.10832 0.540785 0.03804  -0.124283375
 C3 0.608385 0.540926 0.03794  -0.124283375
 C3 0.148555 0.484635 0.02681  -0.124283375
 C3 0.648617 0.484734 0.02698  -0.124283375
 C3 0.137211 0.446691 0.96727  -0.124283375
 C3 0.637393 0.446673 0.96751  -0.124283375
 C4 0.49574 0.54788 0.87385  0.641223125
 C4 0.995494 0.547978 0.87411  0.641223125
 C4 0.073553 0.423447 0.85485  0.641223125
 C4 0.574229 0.423194 0.85496  0.641223125
 C2 0.064232 0.693913 0.01906  0.020345625
 C2 0.564907 0.693891 0.01854  0.020345625
 C3 0.114372 0.70905 0.96755  -0.124283375
 C3 0.614915 0.708838 0.96683  -0.124283375
 C3 0.161365 0.76109 0.97721  -0.124283375
 C3 0.662292 0.760594 0.97637  -0.124283375
 C3 0.158284 0.798954 0.03781  -0.124283375
 C3 0.659728 0.798365 0.03706  -0.124283375
 C1 0.107277 0.785767 0.08869  -0.0238997916667
 C1 0.608851 0.785388 0.08814  -0.0238997916667
 C1 0.060171 0.732511 0.07982  -0.0238997916667
 C1 0.56133 0.732409 0.07939  -0.0238997916667
 C4 0.012409 0.710441 0.13816  0.641223125
 C4 0.513416 0.710546 0.13774  0.641223125
 C4 0.101736 0.82809 0.1527  0.641223125
 C4 0.603747 0.827808 0.15210  0.641223125
 C5 0.063877 0.499128 0.66630  0.180253125
 C5 0.563847 0.498667 0.66634  0.180253125
 C3 0.06823 0.547156 0.61542  -0.124283375
 C3 0.567925 0.546806 0.61554  -0.124283375
 C1 0.111154 0.536617 0.55699  -0.0238997916667
 C1 0.610881 0.536578 0.55707  -0.0238997916667
 C3 0.148222 0.477486 0.55287  -0.124283375
 C3 0.648252 0.477608 0.55286  -0.124283375
 C5 0.139653 0.430871 0.60486  0.180253125
 C5 0.639967 0.430874 0.60478  0.180253125
 C6 0.116088 0.586604 0.49869  0.170250625
 C6 0.615498 0.586599 0.49874  0.170250625
 C6 0.159908 0.648006 0.52151  0.170250625
 C6 0.658261 0.648565 0.52168  0.170250625
 C1 0.159052 0.698028 0.46311  -0.0238997916667
 C1 0.657935 0.698251 0.46291  -0.0238997916667
 C3 0.1074 0.747035 0.46263  -0.124283375
 C3 0.60661 0.747537 0.46193  -0.124283375
 C5 0.106441 0.792583 0.40906  0.180253125
 C5 0.606225 0.792904 0.4081  0.180253125
 C5 0.204416 0.744812 0.35720  0.180253125
 C5 0.704157 0.7444 0.35703  0.180253125
 C3 0.208067 0.697065 0.40854  -0.124283375
 C3 0.707218 0.696821 0.40858  -0.124283375
 C1 0.413873 0.536008 0.41870  -0.0238997916667
 C1 0.911321 0.536691 0.41857  -0.0238997916667
 C1 0.453198 0.477952 0.42858  -0.0238997916667
 C1 0.951039 0.478842 0.42826  -0.0238997916667
 C2 0.44154 0.439935 0.48878  0.020345625
 C2 0.940172 0.440956 0.48866  0.020345625
 C3 0.390405 0.459313 0.53759  -0.124283375
 C3 0.889335 0.460166 0.53785  -0.124283375
 C3 0.350546 0.515711 0.5265  -0.124283375
 C3 0.849022 0.516315 0.52699  -0.124283375
 C3 0.36247 0.553975 0.46753  -0.124283375
 C3 0.860233 0.554515 0.46777  -0.124283375
 C4 0.001914 0.45352 0.37414  0.641223125
 C4 0.504391 0.452642 0.37475  0.641223125
 C4 0.426743 0.577772 0.35594  0.641223125
 C4 0.923875 0.578432 0.35576  0.641223125
 C2 0.433802 0.306294 0.51889  0.020345625
 C2 0.933402 0.307376 0.51805  0.020345625
 C3 0.383511 0.291268 0.46729  -0.124283375
 C3 0.883174 0.292366 0.46638  -0.124283375
 C3 0.336167 0.239546 0.47686  -0.124283375
 C3 0.835997 0.240489 0.47579  -0.124283375
 C3 0.339038 0.20186 0.53749  -0.124283375
 C3 0.838877 0.202737 0.53637  -0.124283375
 C1 0.390221 0.214853 0.58845  -0.0238997916667
 C1 0.889957 0.215807 0.58740  -0.0238997916667
 C1 0.437697 0.267822 0.57967  -0.0238997916667
 C1 0.937407 0.268787 0.57871  -0.0238997916667
 C4 0.485971 0.289702 0.63792  0.641223125
 C4 0.985879 0.290498 0.63687  0.641223125
 C4 0.395715 0.172364 0.65223  0.641223125
 C4 0.895534 0.173245 0.65109  0.641223125
 C5 0.436552 0.501516 0.16681  0.180253125
 C5 0.936109 0.50209 0.16670  0.180253125
 C3 0.432042 0.45338 0.1158  -0.124283375
 C3 0.932272 0.453938 0.11574  -0.124283375
 C1 0.388908 0.46376 0.05747  -0.0238997916667
 C1 0.889054 0.463904 0.05731  -0.0238997916667
 C3 0.351729 0.522838 0.05349  -0.124283375
 C3 0.851184 0.522602 0.05331  -0.124283375
 C5 0.360422 0.569549 0.10555  0.180253125
 C5 0.859239 0.569361 0.10540  0.180253125
 C6 0.383927 0.413725 0.99902  0.170250625
 C6 0.88454 0.413809 0.99890  0.170250625
 C6 0.340224 0.352252 0.02157  0.170250625
 C6 0.841678 0.351927 0.02172  0.170250625
 C1 0.340909 0.302277 0.96293  -0.0238997916667
 C1 0.84201 0.302073 0.96296  -0.0238997916667
 C3 0.392489 0.253204 0.9623  -0.124283375
 C3 0.893453 0.25289 0.96200  -0.124283375
 C5 0.393244 0.207642 0.90861  0.180253125
 C5 0.893851 0.207434 0.90820  0.180253125
 C5 0.295217 0.255534 0.85685  0.180253125
 C5 0.795711 0.255645 0.85698  0.180253125
 C3 0.291767 0.303288 0.90833  -0.124283375
 C3 0.792597 0.303285 0.90859  -0.124283375
 C1 0.162672 0.964056 0.91855  -0.0238997916667
 C1 0.663063 0.964107 0.91843  -0.0238997916667
 C1 0.202866 0.021891 0.92865  -0.0238997916667
 C1 0.703201 0.02199 0.92844  -0.0238997916667
 C2 0.191713 0.059985 0.98891  0.020345625
 C2 0.692116 0.060073 0.98873  0.020345625
 C3 0.140437 0.040761 0.03778  -0.124283375
 C3 0.640912 0.040827 0.03766  -0.124283375
 C3 0.099834 0.984497 0.02662  -0.124283375
 C3 0.600348 0.984526 0.0265  -0.124283375
 C3 0.111082 0.946287 0.96736  -0.124283375
 C3 0.61157 0.946294 0.96733  -0.124283375
 C4 0.254278 0.046906 0.87476  0.641223125
 C4 0.754558 0.047021 0.87450  0.641223125
 C4 0.174964 0.922414 0.8555  0.641223125
 C4 0.675379 0.922373 0.85551  0.641223125
 C2 0.184604 0.193543 0.01863  0.020345625
 C2 0.684981 0.193564 0.01864  0.020345625
 C3 0.134805 0.208384 0.96668  -0.124283375
 C3 0.634972 0.208341 0.96685  -0.124283375
 C3 0.087557 0.259893 0.9760  -0.124283375
 C3 0.58762 0.259737 0.97643  -0.124283375
 C3 0.089953 0.297463 0.03694  -0.124283375
 C3 0.590142 0.297288 0.03730  -0.124283375
 C1 0.140594 0.284585 0.08831  -0.0238997916667
 C1 0.640988 0.284476 0.08849  -0.0238997916667
 C1 0.188051 0.231934 0.07962  -0.0238997916667
 C1 0.688565 0.231927 0.07964  -0.0238997916667
 C4 0.23592 0.210309 0.13804  0.641223125
 C4 0.73659 0.210328 0.13798  0.641223125
 C4 0.145456 0.326913 0.15245  0.641223125
 C4 0.646056 0.326743 0.15263  0.641223125
 C5 0.185865 0.999803 0.66703  0.180253125
 C5 0.686148 0.998764 0.66686  0.180253125
 C3 0.181707 0.048125 0.61641  -0.124283375
 C3 0.681676 0.047001 0.61619  -0.124283375
 C1 0.139038 0.037622 0.55759  -0.0238997916667
 C1 0.638727 0.036355 0.55760  -0.0238997916667
 C3 0.101958 0.978212 0.55294  -0.124283375
 C3 0.601705 0.976912 0.55319  -0.124283375
 C5 0.110331 0.93137 0.60471  0.180253125
 C5 0.610367 0.930164 0.60500  0.180253125
 C6 0.134526 0.087766 0.49935  0.170250625
 C6 0.633815 0.086449 0.49938  0.170250625
 C6 0.091537 0.149315 0.52206  0.170250625
 C6 0.590095 0.147567 0.52209  0.170250625
 C1 0.091239 0.198806 0.463  -0.0238997916667
 C1 0.590717 0.197518 0.46358  -0.0238997916667
 C3 0.14221 0.248768 0.46185  -0.124283375
 C3 0.642022 0.247208 0.46325  -0.124283375
 C5 0.141887 0.294076 0.4080  0.180253125
 C5 0.64276 0.292685 0.40960  0.180253125
 C5 0.043957 0.244191 0.35732  0.180253125
 C5 0.545201 0.243554 0.35738  0.180253125
 C3 0.041608 0.196641 0.40894  -0.124283375
 C3 0.541811 0.195844 0.40878  -0.124283375
 C1 0.336474 0.037236 0.41882  -0.0238997916667
 C1 0.837012 0.036521 0.41891  -0.0238997916667
 C1 0.296849 0.979095 0.428  -0.0238997916667
 C1 0.797122 0.978534 0.42893  -0.0238997916667
 C2 0.308413 0.941227 0.48906  0.020345625
 C2 0.80848 0.940644 0.48923  0.020345625
 C3 0.359847 0.960741 0.53783  -0.124283375
 C3 0.859846 0.960109 0.53810  -0.124283375
 C3 0.400048 0.017203 0.52669  -0.124283375
 C3 0.900212 0.016484 0.52700  -0.124283375
 C3 0.388134 0.055379 0.46762  -0.124283375
 C3 0.888612 0.05459 0.46781  -0.124283375
 C4 0.245497 0.953519 0.37492  0.641223125
 C4 0.745738 0.953213 0.37494  0.641223125
 C4 0.323472 0.078739 0.35596  0.641223125
 C4 0.824291 0.078057 0.35598  0.641223125
 C2 0.315396 0.807746 0.51893  0.020345625
 C2 0.815383 0.807046 0.51902  0.020345625
 C3 0.365258 0.792819 0.46716  -0.124283375
 C3 0.865366 0.792295 0.46732  -0.124283375
 C3 0.412378 0.74122 0.47661  -0.124283375
 C3 0.912506 0.740701 0.47669  -0.124283375
 C3 0.409803 0.703641 0.53734  -0.124283375
 C3 0.9098 0.702935 0.53727  -0.124283375
 C1 0.359085 0.716631 0.58849  -0.0238997916667
 C1 0.858957 0.715716 0.58837  -0.0238997916667
 C1 0.311741 0.769358 0.57977  -0.0238997916667
 C1 0.811591 0.768445 0.57973  -0.0238997916667
 C4 0.263705 0.790969 0.63800  0.641223125
 C4 0.763592 0.789941 0.63806  0.641223125
 C4 0.353807 0.674419 0.65249  0.641223125
 C4 0.853874 0.673284 0.6522  0.641223125
 C5 0.312822 0.001617 0.16694  0.180253125
 C5 0.812823 0.001512 0.16676  0.180253125
 C3 0.317237 0.953365 0.11615  -0.124283375
 C3 0.817149 0.9533 0.1159  -0.124283375
 C1 0.360398 0.963835 0.05783  -0.0238997916667
 C1 0.86038 0.963756 0.05766  -0.0238997916667
 C3 0.39769 0.023145 0.05383  -0.124283375
 C3 0.897786 0.023006 0.05372  -0.124283375
 C5 0.389074 0.069929 0.10573  0.180253125
 C5 0.889242 0.069759 0.10566  0.180253125
 C6 0.365247 0.913733 0.99947  0.170250625
 C6 0.86524 0.913673 0.9992  0.170250625
 C6 0.40815 0.852206 0.02239  0.170250625
 C6 0.908112 0.85214 0.02229  0.170250625
 C1 0.407795 0.802407 0.9635  -0.0238997916667
 C1 0.907744 0.802262 0.96356  -0.0238997916667
 C3 0.356488 0.752725 0.96251  -0.124283375
 C3 0.856537 0.752489 0.96267  -0.124283375
 C5 0.356116 0.707347 0.90862  0.180253125
 C5 0.856093 0.707064 0.90883  0.180253125
 C5 0.453986 0.756609 0.85755  0.180253125
 C5 0.95374 0.756428 0.85746  0.180253125
 C3 0.457037 0.804211 0.90923  -0.124283375
 C3 0.956859 0.804074 0.90909  -0.124283375
 S1 0.001895 0.629109 0.00582  -0.043469375
 S1 0.502247 0.629328 0.00535  -0.043469375
 S1 0.496565 0.370689 0.50554  -0.043469375
 S1 0.995805 0.372088 0.50509  -0.043469375
 S1 0.247195 0.129376 0.00557  -0.043469375
 S1 0.747602 0.129475 0.00533  -0.043469375
 S1 0.252931 0.871967 0.50584  -0.043469375
 S1 0.752968 0.87134 0.50594  -0.043469375
 N1 0.154476 0.792036 0.35699  -0.389904375
 N1 0.654535 0.791914 0.35637  -0.389904375
 N1 0.098224 0.441187 0.66102  -0.389904375
 N1 0.598504 0.440885 0.66098  -0.389904375
 N1 0.345075 0.208232 0.85651  -0.389904375
 N1 0.845465 0.208249 0.85631  -0.389904375
 N1 0.402122 0.559424 0.16165  -0.389904375
 N1 0.900966 0.559619 0.16156  -0.389904375
 N1 0.093213 0.29238 0.3564  -0.389904375
 N1 0.594819 0.291431 0.35731  -0.389904375
 N1 0.151583 0.941618 0.66120  -0.389904375
 N1 0.651879 0.94055 0.66128  -0.389904375
 N1 0.404401 0.70871 0.856  -0.389904375
 N1 0.904211 0.70847 0.85686  -0.389904375
 N1 0.347356 0.059709 0.16174  -0.389904375
 N1 0.847487 0.059541 0.16164  -0.389904375
 O1 0.021463 0.583215 0.82552  -0.564002708333
 O1 0.521577 0.583308 0.82536  -0.564002708333
 O1 0.42925 0.538935 0.88109  -0.564002708333
 O1 0.928992 0.539154 0.88136  -0.564002708333
 O1 0.01946 0.435614 0.81741  -0.564002708333
 O1 0.520915 0.435963 0.8167  -0.564002708333
 O1 0.117209 0.377398 0.83924  -0.564002708333
 O1 0.61729 0.376443 0.84017  -0.564002708333
 O1 0.04263 0.678179 0.18656  -0.564002708333
 O1 0.543475 0.678085 0.18615  -0.564002708333
 O2 0.446586 0.719361 0.1358  -0.593617375
 O2 0.945455 0.719077 0.13627  -0.593617375
 O2 0.04058 0.836093 0.17786  -0.593617375
 O2 0.542747 0.835879 0.17753  -0.593617375
 O1 0.160079 0.852757 0.17635  -0.564002708333
 O1 0.662148 0.852554 0.17550  -0.564002708333
 O3 0.12932 0.672444 0.58328  -0.574024375
 O3 0.62646 0.673254 0.5827  -0.574024375
 O3 0.148129 0.561364 0.43803  -0.574024375
 O3 0.648305 0.561677 0.43835  -0.574024375
 O4 0.039148 0.900194 0.2928  -0.849099375
 O4 0.540056 0.900319 0.29216  -0.849099375
 O1 0.478576 0.418121 0.32533  -0.564002708333
 O1 0.97577 0.419109 0.3247  -0.564002708333
 O1 0.068454 0.461328 0.3822  -0.564002708333
 O1 0.57089 0.46072 0.38303  -0.564002708333
 O1 0.481436 0.566368 0.31920  -0.564002708333
 O1 0.978504 0.56681 0.31896  -0.564002708333
 O1 0.382685 0.623381 0.34000  -0.564002708333
 O1 0.879977 0.624156 0.33987  -0.564002708333
 O1 0.456412 0.322217 0.68652  -0.564002708333
 O1 0.956291 0.321911 0.68632  -0.564002708333
 O2 0.052829 0.282606 0.63384  -0.593617375
 O2 0.552827 0.280823 0.63571  -0.593617375
 O2 0.456879 0.16423 0.67744  -0.593617375
 O2 0.956978 0.163919 0.67517  -0.593617375
 O1 0.337437 0.147593 0.67567  -0.564002708333
 O1 0.837106 0.1497 0.67548  -0.564002708333
 O3 0.370987 0.32774 0.08322  -0.574024375
 O3 0.873416 0.327434 0.08296  -0.574024375
 O3 0.351689 0.438808 0.93839  -0.574024375
 O3 0.851785 0.438612 0.93839  -0.574024375
 O4 0.459941 0.099858 0.79194  -0.849099375
 O4 0.959767 0.099722 0.7896  -0.849099375
 O1 0.228606 0.08088 0.82506  -0.564002708333
 O1 0.728792 0.080937 0.82479  -0.564002708333
 O1 0.320734 0.039179 0.88317  -0.564002708333
 O2 0.820994 0.039322 0.88289  -0.593617375
 O1 0.230342 0.933303 0.81944  -0.564002708333
 O1 0.730795 0.933141 0.81942  -0.564002708333
 O1 0.129944 0.877574 0.83878  -0.564002708333
 O1 0.630326 0.877508 0.83884  -0.564002708333
 O1 0.206014 0.177853 0.18655  -0.564002708333
 O1 0.706622 0.177847 0.18648  -0.564002708333
 O2 0.302808 0.21939 0.13603  -0.593617375
 O2 0.803457 0.219401 0.13599  -0.593617375
 O2 0.206419 0.336035 0.17793  -0.593617375
 O2 0.70717 0.335899 0.17773  -0.593617375
 O1 0.08671 0.350528 0.17569  -0.564002708333
 O1 0.587495 0.350249 0.17640  -0.564002708333
 O3 0.123469 0.174735 0.58298  -0.574024375
 O3 0.62086 0.172349 0.58378  -0.574024375
 O3 0.102001 0.062734 0.43862  -0.574024375
 O3 0.601696 0.061189 0.43860  -0.574024375
 O4 0.206875 0.402473 0.29163  -0.849099375
 O4 0.709869 0.400197 0.29251  -0.849099375
 O1 0.271138 0.919214 0.32547  -0.564002708333
 O1 0.771431 0.919151 0.32531  -0.564002708333
 O1 0.179005 0.96116 0.38325  -0.564002708333
 O1 0.679273 0.960858 0.38321  -0.564002708333
 O1 0.268718 0.066709 0.31922  -0.564002708333
 O1 0.76906 0.066769 0.31962  -0.564002708333
 O1 0.367405 0.124698 0.33990  -0.564002708333
 O1 0.868877 0.123326 0.33956  -0.564002708333
 O1 0.293469 0.822966 0.6870  -0.564002708333
 O1 0.793459 0.822316 0.68683  -0.564002708333
 O2 0.196709 0.78241 0.63516  -0.593617375
 O2 0.696687 0.780882 0.63578  -0.593617375
 O2 0.29283 0.666514 0.67814  -0.593617375
 O2 0.792871 0.664159 0.67738  -0.593617375
 O1 0.412075 0.64968 0.67562  -0.564002708333
 O1 0.912502 0.649624 0.6758  -0.564002708333
 O3 0.376543 0.82739 0.08355  -0.574024375
 O3 0.876435 0.827459 0.08347  -0.574024375
 O3 0.398112 0.938774 0.93910  -0.574024375
 O3 0.898154 0.938728 0.93896  -0.574024375
 O4 0.290005 0.600029 0.79161  -0.849099375
 O4 0.79003 0.598344 0.79137  -0.849099375
