#======================================================================

# CRYSTAL DATA

#----------------------------------------------------------------------

data_VESTA_phase_1


_pd_phase_name                         MOF
_cell_length_a                         20.34000
_cell_length_b                         14.21700
_cell_length_c                         14.21400
_cell_angle_alpha                      91.22800
_cell_angle_beta                       90.00900
_cell_angle_gamma                      90.04100
_symmetry_space_group_name_H-M         "P 1"
_symmetry_Int_Tables_number            1

loop_
_symmetry_equiv_pos_as_xyz
   "x, y, z"

loop_
   _atom_site_label
   _atom_site_fract_x
   _atom_site_fract_y
   _atom_site_fract_z
 _atom_site_charge
 Zn1 0.455791 0.341509 0.32484  0.724263214286
 Zn1 0.9558 0.341509 0.32484  0.724263214286
 Zn1 0.247623 0.320787 0.65912  0.724263214286
 Zn1 0.747632 0.320786 0.65912  0.724263214286
 Zn1 0.205751 0.16057 0.17339  0.724263214286
 Zn1 0.70576 0.16057 0.17339  0.724263214286
 Zn1 0.497564 0.177501 0.83869  0.724263214286
 Zn1 0.997574 0.177501 0.83869  0.724263214286
 Zn1 0.044227 0.658521 0.67512  0.724263214286
 Zn1 0.544237 0.658521 0.67512  0.724263214286
 Zn1 0.252395 0.679244 0.34084  0.724263214286
 Zn1 0.752404 0.679244 0.34084  0.724263214286
 Zn1 0.294267 0.839461 0.82657  0.724263214286
 Zn1 0.794276 0.839461 0.82657  0.724263214286
 Zn1 0.002453 0.822529 0.16127  0.724263214286
 Zn1 0.502463 0.822529 0.16127  0.724263214286
 H1 0.050031 0.271426 0.47034  0.0623598809524
 H1 0.55004 0.271425 0.47034  0.0623598809524
 H1 0.348357 0.245184 0.81863  0.0623598809524
 H1 0.848366 0.245184 0.81863  0.0623598809524
 H1 0.34855 0.331769 0.47410  0.0623598809524
 H1 0.848559 0.331769 0.47410  0.0623598809524
 H1 0.154875 0.532108 0.26370  0.0623598809524
 H1 0.654884 0.532108 0.26370  0.0623598809524
 H1 0.354839 0.180693 0.24595  0.0623598809524
 H1 0.854848 0.180693 0.24595  0.0623598809524
 H1 0.353929 0.528093 0.33835  0.0623598809524
 H1 0.853938 0.528093 0.33835  0.0623598809524
 H1 0.299964 0.229235 0.02745  0.0623598809524
 H1 0.799973 0.229235 0.02745  0.0623598809524
 H1 0.098276 0.252261 0.67880  0.0623598809524
 H1 0.598286 0.252261 0.67880  0.0623598809524
 H1 0.098428 0.168713 0.02422  0.0623598809524
 H1 0.598438 0.168713 0.02422  0.0623598809524
 H1 0.40495 0.969877 0.23706  0.0623598809524
 H1 0.904959 0.969877 0.23706  0.0623598809524
 H1 0.104851 0.321819 0.25130  0.0623598809524
 H1 0.60486 0.32182 0.25130  0.0623598809524
 H1 0.103915 0.973666 0.16203  0.0623598809524
 H1 0.603925 0.973666 0.16203  0.0623598809524
 H1 0.449987 0.728605 0.52962  0.0623598809524
 H1 0.949997 0.728605 0.52962  0.0623598809524
 H1 0.151661 0.754846 0.1813  0.0623598809524
 H1 0.65167 0.754846 0.1813  0.0623598809524
 H1 0.151468 0.668261 0.52586  0.0623598809524
 H1 0.651477 0.668261 0.52586  0.0623598809524
 H1 0.345143 0.467922 0.73626  0.0623598809524
 H1 0.845152 0.467922 0.73626  0.0623598809524
 H1 0.145179 0.819337 0.75402  0.0623598809524
 H1 0.645188 0.819337 0.75402  0.0623598809524
 H1 0.146089 0.471937 0.66162  0.0623598809524
 H1 0.646098 0.471937 0.66162  0.0623598809524
 H1 0.200054 0.770795 0.97251  0.0623598809524
 H1 0.700063 0.770796 0.97251  0.0623598809524
 H1 0.401741 0.747769 0.32117  0.0623598809524
 H1 0.901751 0.747769 0.32117  0.0623598809524
 H1 0.401589 0.831318 0.97574  0.0623598809524
 H1 0.901599 0.831317 0.97574  0.0623598809524
 H1 0.095068 0.030153 0.76291  0.0623598809524
 H1 0.595078 0.030153 0.76291  0.0623598809524
 H1 0.395167 0.678211 0.74866  0.0623598809524
 H1 0.895176 0.678211 0.74866  0.0623598809524
 H1 0.396102 0.026364 0.8379  0.0623598809524
 H1 0.896112 0.026364 0.8379  0.0623598809524
 C1 0.004475 0.273271 0.51078  0.351801964286
 C1 0.504484 0.273271 0.51078  0.351801964286
 C2 0.450627 0.25337 0.64668  0.394895714286
 C2 0.950636 0.25337 0.64668  0.394895714286
 C1 0.373773 0.252677 0.75177  0.351801964286
 C1 0.873783 0.252677 0.75177  0.351801964286
 C3 0.391035 0.284557 0.60576  0.0307032142857
 C3 0.891044 0.284557 0.60576  0.0307032142857
 C4 0.392108 0.308934 0.51204  0.150488214286
 C4 0.892117 0.308934 0.51204  0.150488214286
 C1 0.200016 0.491133 0.26796  0.351801964286
 C1 0.700026 0.491133 0.26796  0.351801964286
 C2 0.253712 0.354237 0.24955  0.394895714286
 C2 0.753722 0.354237 0.24955  0.394895714286
 C1 0.329865 0.24825 0.25226  0.351801964286
 C1 0.829874 0.24825 0.25226  0.351801964286
 C3 0.312847 0.395731 0.28382  0.0307032142857
 C3 0.812857 0.395731 0.28382  0.0307032142857
 C4 0.311374 0.489933 0.31043  0.150488214286
 C4 0.811383 0.489934 0.31043  0.150488214286
 C1 0.254415 0.226967 0.98697  0.351801964286
 C1 0.754424 0.226967 0.98697  0.351801964286
 C2 0.200553 0.245454 0.85087  0.394895714286
 C2 0.700562 0.245455 0.85087  0.394895714286
 C1 0.123711 0.245189 0.74571  0.351801964286
 C1 0.62372 0.245189 0.74571  0.351801964286
 C3 0.140942 0.214571 0.89203  0.0307032142857
 C3 0.640951 0.214571 0.89203  0.0307032142857
 C4 0.141998 0.191181 0.98602  0.150488214286
 C4 0.642007 0.191181 0.98602  0.150488214286
 C1 0.450059 0.010915 0.23232  0.351801964286
 C1 0.950068 0.010914 0.23232  0.351801964286
 C2 0.003727 0.148067 0.24922  0.394895714286
 C2 0.503736 0.148068 0.24922  0.394895714286
 C1 0.07985 0.254194 0.24545  0.351801964286
 C1 0.579859 0.254194 0.24545  0.351801964286
 C3 0.062841 0.106427 0.21524  0.0307032142857
 C3 0.56285 0.106427 0.21524  0.0307032142857
 C4 0.061381 0.011975 0.18964  0.150488214286
 C4 0.56139 0.011975 0.18964  0.150488214286
 C1 0.495543 0.726759 0.4891  0.351801964286
 C1 0.995552 0.726759 0.4891  0.351801964286
 C2 0.049391 0.74666 0.35328  0.394895714286
 C2 0.5494 0.74666 0.35328  0.394895714286
 C1 0.126245 0.747353 0.24820  0.351801964286
 C1 0.626254 0.747353 0.24820  0.351801964286
 C3 0.108983 0.715473 0.39420  0.0307032142857
 C3 0.608992 0.715473 0.39420  0.0307032142857
 C4 0.10791 0.691096 0.4879  0.150488214286
 C4 0.607919 0.691096 0.4879  0.150488214286
 C1 0.300001 0.508897 0.73200  0.351801964286
 C1 0.80001 0.508897 0.73200  0.351801964286
 C2 0.246305 0.645794 0.75041  0.394895714286
 C2 0.746315 0.645793 0.75041  0.394895714286
 C1 0.170153 0.75178 0.74770  0.351801964286
 C1 0.670162 0.75178 0.74770  0.351801964286
 C3 0.187171 0.6043 0.7161  0.0307032142857
 C3 0.68718 0.604299 0.7161  0.0307032142857
 C4 0.188644 0.510097 0.68954  0.150488214286
 C4 0.688654 0.510097 0.68954  0.150488214286
 C1 0.245603 0.773063 0.01299  0.351801964286
 C1 0.745612 0.773063 0.01299  0.351801964286
 C2 0.299465 0.754576 0.14909  0.394895714286
 C2 0.799475 0.754576 0.14909  0.394895714286
 C1 0.376307 0.754841 0.25425  0.351801964286
 C1 0.876316 0.754841 0.25425  0.351801964286
 C3 0.359076 0.785459 0.10793  0.0307032142857
 C3 0.859085 0.785459 0.10793  0.0307032142857
 C4 0.35802 0.808849 0.01394  0.150488214286
 C4 0.858029 0.808849 0.01394  0.150488214286
 C1 0.049959 0.989116 0.76765  0.351801964286
 C1 0.549968 0.989116 0.76765  0.351801964286
 C2 0.496291 0.851963 0.7507  0.394895714286
 C2 0.9963 0.851963 0.7507  0.394895714286
 C1 0.420168 0.745837 0.75451  0.351801964286
 C1 0.920177 0.745837 0.75451  0.351801964286
 C3 0.437177 0.893603 0.78472  0.0307032142857
 C3 0.937186 0.893603 0.78472  0.0307032142857
 C4 0.438637 0.988055 0.81033  0.150488214286
 C4 0.938646 0.988055 0.81033  0.150488214286
 Br1 0.999203 0.49504 0.311  -0.517341785714
 Br1 0.499212 0.49504 0.311  -0.517341785714
 Br1 0.203201 0.308923 0.50521  -0.517341785714
 Br1 0.70321 0.308923 0.50521  -0.517341785714
 Br1 0.249126 0.007203 0.18821  -0.517341785714
 Br1 0.749135 0.007203 0.18821  -0.517341785714
 Br1 0.453015 0.190639 0.9924  -0.517341785714
 Br1 0.953025 0.190639 0.9924  -0.517341785714
 Br1 0.500815 0.50499 0.68877  -0.517341785714
 Br1 0.0 0.50499 0.68877  -0.517341785714
 Br1 0.296817 0.691107 0.49476  -0.517341785714
 Br1 0.796827 0.691107 0.49476  -0.517341785714
 Br1 0.250892 0.992827 0.81176  -0.517341785714
 Br1 0.750901 0.992827 0.81176  -0.517341785714
 Br1 0.047003 0.809391 0.00750  -0.517341785714
 Br1 0.547012 0.809391 0.00750  -0.517341785714
 N1 0.449833 0.303016 0.46515  -0.418846785714
 N1 0.949842 0.303016 0.46515  -0.418846785714
 N2 0.007667 0.246643 0.59990  -0.417151785714
 N2 0.507676 0.246643 0.59990  -0.417151785714
 N1 0.43854 0.23338 0.73929  -0.418846785714
 N1 0.938549 0.23338 0.73929  -0.418846785714
 N1 0.342691 0.283314 0.67430  -0.418846785714
 N1 0.8427 0.283314 0.67430  -0.418846785714
 N1 0.253964 0.537018 0.30175  -0.418846785714
 N1 0.753974 0.537018 0.30175  -0.418846785714
 N2 0.196961 0.400978 0.24071  -0.417151785714
 N2 0.69697 0.400978 0.24071  -0.417151785714
 N1 0.265668 0.260802 0.22970  -0.418846785714
 N1 0.765678 0.260802 0.22970  -0.418846785714
 N1 0.360757 0.32656 0.28445  -0.418846785714
 N1 0.860766 0.32656 0.28445  -0.418846785714
 N1 0.199729 0.197676 0.03289  -0.418846785714
 N1 0.699739 0.197676 0.03289  -0.418846785714
 N2 0.257618 0.252693 0.8975  -0.417151785714
 N2 0.757627 0.252692 0.8975  -0.417151785714
 N1 0.188484 0.264631 0.75809  -0.418846785714
 N1 0.688494 0.264631 0.75809  -0.418846785714
 N1 0.092614 0.215161 0.82343  -0.418846785714
 N1 0.592624 0.215161 0.82343  -0.418846785714
 N1 0.004004 0.964879 0.1989  -0.418846785714
 N1 0.504013 0.964879 0.1989  -0.418846785714
 N2 0.446988 0.10132 0.2586  -0.417151785714
 N2 0.946998 0.10132 0.2586  -0.417151785714
 N1 0.015677 0.241671 0.26821  -0.418846785714
 N1 0.515686 0.241672 0.26821  -0.418846785714
 N1 0.11073 0.175699 0.21389  -0.418846785714
 N1 0.610739 0.175699 0.21389  -0.418846785714
 N1 0.050185 0.697014 0.53481  -0.418846785714
 N1 0.550194 0.697014 0.53481  -0.418846785714
 N2 0.492351 0.753387 0.40006  -0.417151785714
 N2 0.99236 0.753387 0.40006  -0.417151785714
 N1 0.061478 0.76665 0.26068  -0.418846785714
 N1 0.561487 0.76665 0.26068  -0.418846785714
 N1 0.157327 0.716716 0.32566  -0.418846785714
 N1 0.657336 0.716716 0.32566  -0.418846785714
 N1 0.246054 0.463013 0.69822  -0.418846785714
 N1 0.746063 0.463013 0.69822  -0.418846785714
 N2 0.303057 0.599052 0.7592  -0.417151785714
 N2 0.803066 0.599052 0.7592  -0.417151785714
 N1 0.234349 0.739228 0.77026  -0.418846785714
 N1 0.734359 0.739228 0.77026  -0.418846785714
 N1 0.139261 0.67347 0.71552  -0.418846785714
 N1 0.63927 0.67347 0.71552  -0.418846785714
 N1 0.300288 0.802354 0.96708  -0.418846785714
 N1 0.800298 0.802354 0.96708  -0.418846785714
 N2 0.2424 0.747337 0.10239  -0.417151785714
 N2 0.742409 0.747338 0.10239  -0.417151785714
 N1 0.311533 0.735399 0.24187  -0.418846785714
 N1 0.811543 0.7354 0.24187  -0.418846785714
 N1 0.407404 0.78487 0.17654  -0.418846785714
 N1 0.907413 0.78487 0.17654  -0.418846785714
 N1 0.496014 0.035151 0.80099  -0.418846785714
 N1 0.996024 0.035151 0.80099  -0.418846785714
 N2 0.053029 0.89871 0.74135  -0.417151785714
 N2 0.553039 0.89871 0.74135  -0.417151785714
 N1 0.484341 0.758359 0.73176  -0.418846785714
 N1 0.98435 0.758359 0.73176  -0.418846785714
 N1 0.389288 0.824331 0.78607  -0.418846785714
 N1 0.889297 0.824331 0.78607  -0.418846785714
