#======================================================================

# CRYSTAL DATA

#----------------------------------------------------------------------

data_VESTA_phase_1


_pd_phase_name                         MOF
_cell_length_a                         13.77200
_cell_length_b                         21.26100
_cell_length_c                         22.33100
_cell_angle_alpha                      72.05200
_cell_angle_beta                       78.14700
_cell_angle_gamma                      74.91300
_symmetry_space_group_name_H-M         "P 1"
_symmetry_Int_Tables_number            1

loop_
_symmetry_equiv_pos_as_xyz
   "x, y, z"

loop_
   _atom_site_label
   _atom_site_fract_x
   _atom_site_fract_y
   _atom_site_fract_z
 _atom_site_charge
 Cd1 0.4399 0.298298 0.31082  1.03265910714
 Cd1 0.439901 0.298304 0.81083  1.03265910714
 Cd1 0.439325 0.798258 0.31090  1.03265910714
 Cd1 0.439326 0.798265 0.81091  1.03265910714
 Cd1 0.939894 0.298298 0.31082  1.03265910714
 Cd1 0.939895 0.298304 0.81083  1.03265910714
 Cd1 0.939318 0.798258 0.31090  1.03265910714
 Cd1 0.939319 0.798265 0.81091  1.03265910714
 Cd2 0.310251 0.182605 0.45642  1.13908410714
 Cd2 0.310253 0.182612 0.95642  1.13908410714
 Cd2 0.309569 0.682773 0.4565  1.13908410714
 Cd2 0.309571 0.682778 0.95659  1.13908410714
 Cd2 0.810244 0.182605 0.45642  1.13908410714
 Cd2 0.810246 0.182611 0.95642  1.13908410714
 Cd2 0.809562 0.682772 0.4565  1.13908410714
 Cd2 0.809563 0.682779 0.95659  1.13908410714
 Cd1 0.060678 0.20173 0.18911  1.03265910714
 Cd1 0.060679 0.201736 0.68912  1.03265910714
 Cd1 0.060097 0.701689 0.18919  1.03265910714
 Cd1 0.060098 0.701695 0.68919  1.03265910714
 Cd1 0.560672 0.20173 0.18911  1.03265910714
 Cd1 0.560673 0.201736 0.68912  1.03265910714
 Cd1 0.560091 0.701689 0.18919  1.03265910714
 Cd1 0.560092 0.701695 0.689  1.03265910714
 Cd2 0.190432 0.317217 0.04343  1.13908410714
 Cd2 0.190434 0.317223 0.54343  1.13908410714
 Cd2 0.189746 0.817383 0.04359  1.13908410714
 Cd2 0.189748 0.81739 0.54360  1.13908410714
 Cd2 0.690425 0.317217 0.04343  1.13908410714
 Cd2 0.690426 0.317223 0.54343  1.13908410714
 Cd2 0.689738 0.817383 0.04359  1.13908410714
 Cd2 0.68974 0.817389 0.54360  1.13908410714
 H1 0.157096 0.486451 0.3402  0.0931257738095
 H1 0.157097 0.486457 0.84024  0.0931257738095
 H1 0.156959 0.986526 0.3402  0.0931257738095
 H1 0.156959 0.986532 0.84028  0.0931257738095
 H1 0.657092 0.486451 0.34023  0.0931257738095
 H1 0.657093 0.486457 0.84024  0.0931257738095
 H1 0.656955 0.986526 0.3402  0.0931257738095
 H1 0.656955 0.986532 0.84028  0.0931257738095
 H1 0.101434 0.474585 0.16180  0.0931257738095
 H1 0.101435 0.474591 0.66181  0.0931257738095
 H1 0.10155 0.974782 0.16173  0.0931257738095
 H1 0.101549 0.974788 0.66174  0.0931257738095
 H1 0.60143 0.474585 0.16180  0.0931257738095
 H1 0.60143 0.474591 0.66181  0.0931257738095
 H1 0.601545 0.974782 0.1617  0.0931257738095
 H1 0.601544 0.974788 0.66174  0.0931257738095
 H1 0.196012 0.292074 0.30609  0.0931257738095
 H1 0.196013 0.292081 0.80609  0.0931257738095
 H1 0.19519 0.792196 0.30617  0.0931257738095
 H1 0.195192 0.792202 0.80618  0.0931257738095
 H1 0.696008 0.292074 0.30609  0.0931257738095
 H1 0.696009 0.29208 0.80609  0.0931257738095
 H1 0.695186 0.792196 0.30617  0.0931257738095
 H1 0.695187 0.792202 0.80618  0.0931257738095
 H2 0.093349 0.106924 0.07503  0.348764107143
 H2 0.09335 0.106933 0.57504  0.348764107143
 H2 0.092838 0.607009 0.0751  0.348764107143
 H2 0.09284 0.607017 0.57512  0.348764107143
 H2 0.593343 0.106924 0.07503  0.348764107143
 H2 0.593344 0.106933 0.57504  0.348764107143
 H2 0.592831 0.607009 0.0751  0.348764107143
 H2 0.592833 0.607017 0.57512  0.348764107143
 H2 0.478437 0.104297 0.05923  0.348764107143
 H2 0.478437 0.104305 0.55923  0.348764107143
 H2 0.477817 0.604445 0.05938  0.348764107143
 H2 0.477818 0.604453 0.55939  0.348764107143
 H2 0.97843 0.104296 0.05923  0.348764107143
 H2 0.97843 0.104304 0.55923  0.348764107143
 H2 0.977809 0.604445 0.05938  0.348764107143
 H2 0.97781 0.604452 0.55939  0.348764107143
 H1 0.343041 0.013461 0.1597  0.0931257738095
 H1 0.343041 0.013467 0.65974  0.0931257738095
 H1 0.342901 0.513538 0.1597  0.0931257738095
 H1 0.3429 0.513544 0.65978  0.0931257738095
 H1 0.843038 0.013461 0.15973  0.0931257738095
 H1 0.843038 0.013467 0.65974  0.0931257738095
 H1 0.842896 0.513538 0.1597  0.0931257738095
 H1 0.842898 0.513543 0.65978  0.0931257738095
 H1 0.398454 0.025206 0.33827  0.0931257738095
 H1 0.398454 0.025212 0.83828  0.0931257738095
 H1 0.398567 0.525402 0.33821  0.0931257738095
 H1 0.398567 0.525409 0.83822  0.0931257738095
 H1 0.89845 0.025206 0.33827  0.0931257738095
 H1 0.898449 0.025212 0.83828  0.0931257738095
 H1 0.898562 0.525402 0.33821  0.0931257738095
 H1 0.898563 0.525409 0.83822  0.0931257738095
 H1 0.304809 0.207791 0.19384  0.0931257738095
 H1 0.30481 0.207798 0.69385  0.0931257738095
 H1 0.303984 0.707914 0.19393  0.0931257738095
 H1 0.303988 0.70792 0.69393  0.0931257738095
 H1 0.804804 0.207791 0.19384  0.0931257738095
 H1 0.804805 0.207798 0.69385  0.0931257738095
 H1 0.80398 0.707914 0.19393  0.0931257738095
 H1 0.803982 0.70792 0.69393  0.0931257738095
 H2 0.407161 0.392976 0.42490  0.348764107143
 H2 0.407163 0.392984 0.92490  0.348764107143
 H2 0.40665 0.893059 0.42498  0.348764107143
 H2 0.406651 0.893067 0.9249  0.348764107143
 H2 0.907154 0.392976 0.42490  0.348764107143
 H2 0.907156 0.392984 0.92490  0.348764107143
 H2 0.906642 0.893059 0.42498  0.348764107143
 H2 0.906643 0.893067 0.9249  0.348764107143
 H2 0.022184 0.395542 0.44063  0.348764107143
 H2 0.022184 0.39555 0.94064  0.348764107143
 H2 0.021564 0.895687 0.4407  0.348764107143
 H2 0.021563 0.895695 0.94079  0.348764107143
 H2 0.522176 0.395542 0.44063  0.348764107143
 H2 0.522177 0.39555 0.94064  0.348764107143
 H2 0.521556 0.895687 0.4407  0.348764107143
 H2 0.521556 0.895694 0.94079  0.348764107143
 C1 0.183689 0.385232 0.32911  -0.162460892857
 C1 0.183691 0.385238 0.82912  -0.162460892857
 C1 0.183115 0.885321 0.32921  -0.162460892857
 C1 0.183115 0.885327 0.82921  -0.162460892857
 C1 0.683685 0.385232 0.32911  -0.162460892857
 C1 0.683686 0.385238 0.82912  -0.162460892857
 C1 0.68311 0.885321 0.32921  -0.162460892857
 C1 0.683111 0.885327 0.82921  -0.162460892857
 C2 0.155406 0.455834 0.30948  0.0153957738095
 C2 0.155407 0.455841 0.80949  0.0153957738095
 C2 0.155167 0.955934 0.30952  0.0153957738095
 C2 0.155167 0.95594 0.80953  0.0153957738095
 C2 0.655402 0.455835 0.30948  0.0153957738095
 C2 0.655403 0.455841 0.80949  0.0153957738095
 C2 0.655162 0.955934 0.30952  0.0153957738095
 C2 0.655163 0.95594 0.80953  0.0153957738095
 C1 0.128411 0.488056 0.2484  -0.162460892857
 C1 0.128412 0.488062 0.74845  -0.162460892857
 C1 0.128416 0.988188 0.24843  -0.162460892857
 C1 0.128415 0.988195 0.74844  -0.162460892857
 C1 0.628406 0.488056 0.2484  -0.162460892857
 C1 0.628407 0.488063 0.74845  -0.162460892857
 C1 0.628411 0.988189 0.24843  -0.162460892857
 C1 0.628411 0.988195 0.74844  -0.162460892857
 C2 0.124157 0.449383 0.2087  0.0153957738095
 C2 0.124158 0.449389 0.70872  0.0153957738095
 C2 0.124055 0.949554 0.20870  0.0153957738095
 C2 0.124054 0.94956 0.70871  0.0153957738095
 C2 0.624152 0.449383 0.2087  0.0153957738095
 C2 0.624154 0.449389 0.70872  0.0153957738095
 C2 0.62405 0.949554 0.20870  0.0153957738095
 C2 0.62405 0.94956 0.70871  0.0153957738095
 C1 0.144681 0.378758 0.23030  -0.162460892857
 C1 0.144682 0.378764 0.73031  -0.162460892857
 C1 0.144271 0.878937 0.23032  -0.162460892857
 C1 0.144271 0.878943 0.7303  -0.162460892857
 C1 0.644676 0.378758 0.23030  -0.162460892857
 C1 0.644677 0.378764 0.73031  -0.162460892857
 C1 0.644265 0.878936 0.23032  -0.162460892857
 C1 0.644266 0.878943 0.73033  -0.162460892857
 C2 0.177906 0.346917 0.28946  0.0153957738095
 C2 0.177908 0.346923 0.78947  0.0153957738095
 C2 0.177265 0.847042 0.28953  0.0153957738095
 C2 0.177266 0.847048 0.78954  0.0153957738095
 C2 0.677901 0.346917 0.28946  0.0153957738095
 C2 0.677903 0.346923 0.78947  0.0153957738095
 C2 0.67726 0.847042 0.28953  0.0153957738095
 C2 0.677261 0.847048 0.78954  0.0153957738095
 C3 0.217952 0.348921 0.39254  0.69544577381
 C3 0.217951 0.348928 0.89255  0.69544577381
 C3 0.217226 0.848985 0.39267  0.69544577381
 C3 0.217228 0.848993 0.89268  0.69544577381
 C3 0.717947 0.348922 0.39254  0.69544577381
 C3 0.717946 0.348928 0.89255  0.69544577381
 C3 0.717221 0.848986 0.39267  0.69544577381
 C3 0.71722 0.848992 0.89268  0.69544577381
 C3 0.103745 0.063884 0.22563  0.69544577381
 C3 0.103742 0.063891 0.72564  0.69544577381
 C3 0.103336 0.563743 0.22570  0.69544577381
 C3 0.103338 0.563749 0.72571  0.69544577381
 C3 0.603739 0.063885 0.22563  0.69544577381
 C3 0.603735 0.063891 0.72564  0.69544577381
 C3 0.603332 0.563743 0.22570  0.69544577381
 C3 0.603329 0.56375 0.72571  0.69544577381
 C3 0.128295 0.336543 0.19184  0.69544577381
 C3 0.128296 0.33655 0.69184  0.69544577381
 C3 0.127954 0.836841 0.19171  0.69544577381
 C3 0.127955 0.836848 0.69172  0.69544577381
 C3 0.628289 0.336543 0.19184  0.69544577381
 C3 0.628292 0.336549 0.69184  0.69544577381
 C3 0.627949 0.836841 0.19171  0.69544577381
 C3 0.627949 0.836848 0.69172  0.69544577381
 C4 0.057121 0.159807 0.48564  0.621009107143
 C4 0.057124 0.159812 0.98564  0.621009107143
 C4 0.056542 0.659848 0.48571  0.621009107143
 C4 0.056544 0.659853 0.98571  0.621009107143
 C4 0.557113 0.159808 0.48564  0.621009107143
 C4 0.557116 0.159813 0.98564  0.621009107143
 C4 0.556534 0.659849 0.48571  0.621009107143
 C4 0.556536 0.659853 0.98571  0.621009107143
 C1 0.316885 0.114666 0.17080  -0.162460892857
 C1 0.316885 0.114673 0.67081  -0.162460892857
 C1 0.316306 0.614756 0.17090  -0.162460892857
 C1 0.316308 0.614763 0.67091  -0.162460892857
 C1 0.81688 0.114667 0.17080  -0.162460892857
 C1 0.81688 0.114673 0.67081  -0.162460892857
 C1 0.816302 0.614757 0.17090  -0.162460892857
 C1 0.816303 0.614763 0.67091  -0.162460892857
 C2 0.344834 0.044053 0.19049  0.0153957738095
 C2 0.344834 0.04406 0.69049  0.0153957738095
 C2 0.34459 0.544154 0.19053  0.0153957738095
 C2 0.344592 0.54416 0.69054  0.0153957738095
 C2 0.84483 0.044054 0.1904  0.0153957738095
 C2 0.84483 0.04406 0.69049  0.0153957738095
 C2 0.844587 0.544154 0.19053  0.0153957738095
 C2 0.844587 0.54416 0.69054  0.0153957738095
 C1 0.371586 0.011799 0.2515  -0.162460892857
 C1 0.371586 0.011805 0.75158  -0.162460892857
 C1 0.371588 0.511931 0.2515  -0.162460892857
 C1 0.371589 0.511938 0.75157  -0.162460892857
 C1 0.871581 0.011799 0.2515  -0.162460892857
 C1 0.871581 0.011806 0.75158  -0.162460892857
 C1 0.871584 0.511932 0.2515  -0.162460892857
 C1 0.871583 0.511938 0.75157  -0.162460892857
 C2 0.375948 0.050433 0.29131  0.0153957738095
 C2 0.375947 0.05044 0.79132  0.0153957738095
 C2 0.375843 0.550605 0.291  0.0153957738095
 C2 0.375845 0.550611 0.79130  0.0153957738095
 C2 0.875943 0.050433 0.29131  0.0153957738095
 C2 0.875942 0.05044 0.79132  0.0153957738095
 C2 0.875839 0.550605 0.291  0.0153957738095
 C2 0.875839 0.550611 0.79130  0.0153957738095
 C1 0.35573 0.121051 0.26969  -0.162460892857
 C1 0.355731 0.121057 0.76970  -0.162460892857
 C1 0.355319 0.621229 0.26971  -0.162460892857
 C1 0.35532 0.621235 0.76972  -0.162460892857
 C1 0.855725 0.121051 0.26969  -0.162460892857
 C1 0.855725 0.121057 0.76970  -0.162460892857
 C1 0.855314 0.621229 0.26971  -0.162460892857
 C1 0.855316 0.621235 0.76972  -0.162460892857
 C2 0.322735 0.152945 0.2104  0.0153957738095
 C2 0.322736 0.152952 0.71048  0.0153957738095
 C2 0.322091 0.653071 0.21055  0.0153957738095
 C2 0.322093 0.653077 0.71056  0.0153957738095
 C2 0.822729 0.152945 0.2104  0.0153957738095
 C2 0.822731 0.152952 0.71048  0.0153957738095
 C2 0.822087 0.653071 0.21055  0.0153957738095
 C2 0.822088 0.653077 0.71056  0.0153957738095
 C3 0.282773 0.151 0.10734  0.69544577381
 C3 0.282775 0.151008 0.60735  0.69544577381
 C3 0.282048 0.651067 0.10747  0.69544577381
 C3 0.282048 0.651074 0.60748  0.69544577381
 C3 0.782768 0.151001 0.10734  0.69544577381
 C3 0.782769 0.151008 0.60735  0.69544577381
 C3 0.782041 0.651067 0.10747  0.69544577381
 C3 0.782044 0.651075 0.60748  0.69544577381
 C3 0.396661 0.436244 0.27431  0.69544577381
 C3 0.396655 0.43625 0.7743  0.69544577381
 C3 0.396258 0.936103 0.27437  0.69544577381
 C3 0.396257 0.936109 0.77438  0.69544577381
 C3 0.896654 0.436244 0.27431  0.69544577381
 C3 0.896658 0.43625 0.77431  0.69544577381
 C3 0.896255 0.936103 0.27437  0.69544577381
 C3 0.896254 0.93611 0.77438  0.69544577381
 C3 0.372044 0.163149 0.30829  0.69544577381
 C3 0.372046 0.163156 0.80830  0.69544577381
 C3 0.371702 0.663446 0.30817  0.69544577381
 C3 0.371707 0.663451 0.80818  0.69544577381
 C3 0.872039 0.163149 0.30829  0.69544577381
 C3 0.87204 0.163156 0.80830  0.69544577381
 C3 0.871698 0.663446 0.30817  0.69544577381
 C3 0.871699 0.663452 0.80818  0.69544577381
 C4 0.443459 0.34014 0.01431  0.621009107143
 C4 0.443461 0.340145 0.51431  0.621009107143
 C4 0.442876 0.840181 0.01438  0.621009107143
 C4 0.442879 0.840185 0.51438  0.621009107143
 C4 0.943451 0.340141 0.01431  0.621009107143
 C4 0.943453 0.340146 0.51431  0.621009107143
 C4 0.942869 0.84018 0.01438  0.621009107143
 C4 0.942872 0.840185 0.51438  0.621009107143
 N1 0.481469 0.1874 0.44882  -0.421860892857
 N1 0.481471 0.187407 0.94882  -0.421860892857
 N1 0.480889 0.687405 0.44889  -0.421860892857
 N1 0.48089 0.687412 0.94889  -0.421860892857
 N1 0.98146 0.1874 0.44882  -0.421860892857
 N1 0.981462 0.187407 0.94882  -0.421860892857
 N1 0.98088 0.687405 0.44889  -0.421860892857
 N1 0.980881 0.687412 0.94889  -0.421860892857
 N2 0.021207 0.230635 0.39627  -0.0423308928571
 N2 0.021207 0.230645 0.89628  -0.0423308928571
 N2 0.020679 0.730533 0.39627  -0.0423308928571
 N2 0.02068 0.730541 0.89628  -0.0423308928571
 N2 0.521199 0.230636 0.39627  -0.0423308928571
 N2 0.521199 0.230646 0.89628  -0.0423308928571
 N2 0.520671 0.730533 0.39627  -0.0423308928571
 N2 0.520672 0.730542 0.89628  -0.0423308928571
 N3 0.114173 0.230678 0.40027  -0.0171508928571
 N3 0.114174 0.230687 0.9002  -0.0171508928571
 N3 0.113675 0.730546 0.40022  -0.0171508928571
 N3 0.113675 0.730556 0.90023  -0.0171508928571
 N3 0.614165 0.230677 0.40027  -0.0171508928571
 N3 0.614166 0.230686 0.9002  -0.0171508928571
 N3 0.613667 0.730546 0.40022  -0.0171508928571
 N3 0.613667 0.730556 0.90023  -0.0171508928571
 N1 0.139917 0.18674 0.45599  -0.421860892857
 N1 0.139918 0.186748 0.95600  -0.421860892857
 N1 0.139389 0.686699 0.45599  -0.421860892857
 N1 0.139391 0.686705 0.95600  -0.421860892857
 N1 0.639911 0.18674 0.45599  -0.421860892857
 N1 0.639912 0.186747 0.95600  -0.421860892857
 N1 0.639383 0.686698 0.45599  -0.421860892857
 N1 0.639383 0.686706 0.95600  -0.421860892857
 N4 0.050951 0.110751 0.04093  -0.750960892857
 N4 0.050951 0.110758 0.54094  -0.750960892857
 N4 0.050323 0.610886 0.04106  -0.750960892857
 N4 0.050324 0.610892 0.5410  -0.750960892857
 N4 0.550944 0.110751 0.04093  -0.750960892857
 N4 0.550944 0.110759 0.54094  -0.750960892857
 N4 0.550316 0.610886 0.04106  -0.750960892857
 N4 0.550317 0.610892 0.5410  -0.750960892857
 N1 0.019114 0.312581 0.05113  -0.421860892857
 N1 0.019116 0.312588 0.55113  -0.421860892857
 N1 0.01853 0.812587 0.05120  -0.421860892857
 N1 0.018532 0.812594 0.55120  -0.421860892857
 N1 0.519105 0.312582 0.05113  -0.421860892857
 N1 0.519107 0.312588 0.55113  -0.421860892857
 N1 0.518521 0.812586 0.05120  -0.421860892857
 N1 0.518523 0.812593 0.55120  -0.421860892857
 N2 0.479325 0.269451 0.10374  -0.0423308928571
 N2 0.479325 0.26946 0.60375  -0.0423308928571
 N2 0.478792 0.769348 0.10374  -0.0423308928571
 N2 0.478793 0.769358 0.60375  -0.0423308928571
 N2 0.979316 0.269452 0.10374  -0.0423308928571
 N2 0.979317 0.269461 0.60375  -0.0423308928571
 N2 0.978784 0.769348 0.10374  -0.0423308928571
 N2 0.978785 0.769358 0.6037  -0.0423308928571
 N3 0.386329 0.269439 0.09979  -0.0171508928571
 N3 0.386329 0.269448 0.59980  -0.0171508928571
 N3 0.385827 0.769306 0.09974  -0.0171508928571
 N3 0.385827 0.769315 0.59975  -0.0171508928571
 N3 0.88632 0.269439 0.09979  -0.0171508928571
 N3 0.886321 0.269448 0.59980  -0.0171508928571
 N3 0.885818 0.769306 0.09974  -0.0171508928571
 N3 0.885819 0.769315 0.59975  -0.0171508928571
 N1 0.360612 0.313288 0.04402  -0.421860892857
 N1 0.360612 0.313296 0.54403  -0.421860892857
 N1 0.360081 0.813245 0.04402  -0.421860892857
 N1 0.360082 0.813252 0.54403  -0.421860892857
 N1 0.860604 0.313289 0.04402  -0.421860892857
 N1 0.860605 0.313296 0.54403  -0.421860892857
 N1 0.860074 0.813245 0.04402  -0.421860892857
 N1 0.860075 0.813253 0.54403  -0.421860892857
 N4 0.449678 0.389101 0.4589  -0.750960892857
 N4 0.449679 0.389108 0.95896  -0.750960892857
 N4 0.449049 0.889234 0.45908  -0.750960892857
 N4 0.449049 0.889241 0.95909  -0.750960892857
 N4 0.949671 0.389101 0.4589  -0.750960892857
 N4 0.949672 0.389108 0.95896  -0.750960892857
 N4 0.949042 0.889234 0.45908  -0.750960892857
 N4 0.949042 0.889241 0.95909  -0.750960892857
 O1 0.290548 0.296444 0.39634  -0.695170892857
 O1 0.290549 0.296451 0.8963  -0.695170892857
 O1 0.289807 0.796503 0.39648  -0.695170892857
 O1 0.289808 0.79651 0.89649  -0.695170892857
 O1 0.790542 0.296444 0.39634  -0.695170892857
 O1 0.790543 0.296451 0.8963  -0.695170892857
 O1 0.789801 0.796503 0.39648  -0.695170892857
 O1 0.789803 0.796511 0.89649  -0.695170892857
 O1 0.172187 0.371968 0.43960  -0.695170892857
 O1 0.172188 0.371977 0.9396  -0.695170892857
 O1 0.171426 0.872025 0.43973  -0.695170892857
 O1 0.171424 0.872032 0.93974  -0.695170892857
 O1 0.672181 0.371967 0.43960  -0.695170892857
 O1 0.672182 0.371977 0.9396  -0.695170892857
 O1 0.671418 0.872025 0.43973  -0.695170892857
 O1 0.671419 0.872033 0.93974  -0.695170892857
 O1 0.103017 0.098495 0.2635  -0.695170892857
 O1 0.103018 0.098501 0.76353  -0.695170892857
 O1 0.102259 0.598375 0.26365  -0.695170892857
 O1 0.102258 0.598381 0.76366  -0.695170892857
 O1 0.603013 0.098495 0.2635  -0.695170892857
 O1 0.603013 0.098501 0.76353  -0.695170892857
 O1 0.602254 0.598375 0.26365  -0.695170892857
 O1 0.602257 0.598382 0.76366  -0.695170892857
 O1 0.084031 0.092252 0.16882  -0.695170892857
 O1 0.084031 0.092259 0.66883  -0.695170892857
 O1 0.08369 0.592078 0.16888  -0.695170892857
 O1 0.083689 0.592085 0.66889  -0.695170892857
 O1 0.584025 0.092252 0.16882  -0.695170892857
 O1 0.584027 0.092259 0.66883  -0.695170892857
 O1 0.583683 0.592078 0.16888  -0.695170892857
 O1 0.583684 0.592084 0.66889  -0.695170892857
 O1 0.149932 0.35533 0.13241  -0.695170892857
 O1 0.149934 0.355335 0.63242  -0.695170892857
 O1 0.149731 0.855874 0.13229  -0.695170892857
 O1 0.149735 0.855879 0.63230  -0.695170892857
 O1 0.649925 0.35533 0.13241  -0.695170892857
 O1 0.649926 0.355336 0.63242  -0.695170892857
 O1 0.649725 0.855874 0.13229  -0.695170892857
 O1 0.649729 0.855879 0.63230  -0.695170892857
 O1 0.092116 0.283577 0.22439  -0.695170892857
 O1 0.092118 0.283583 0.72440  -0.695170892857
 O1 0.091777 0.783845 0.22409  -0.695170892857
 O1 0.091779 0.783851 0.72409  -0.695170892857
 O1 0.592109 0.283577 0.22439  -0.695170892857
 O1 0.59211 0.283584 0.72440  -0.695170892857
 O1 0.59177 0.783846 0.22409  -0.695170892857
 O1 0.591772 0.783852 0.72409  -0.695170892857
 O1 0.210197 0.203486 0.10353  -0.695170892857
 O1 0.210197 0.203492 0.60354  -0.695170892857
 O1 0.209447 0.703542 0.10367  -0.695170892857
 O1 0.209447 0.703549 0.60368  -0.695170892857
 O1 0.710191 0.203486 0.10353  -0.695170892857
 O1 0.710192 0.203493 0.60354  -0.695170892857
 O1 0.709441 0.703543 0.10367  -0.695170892857
 O1 0.709441 0.703549 0.60368  -0.695170892857
 O1 0.328568 0.127959 0.06028  -0.695170892857
 O1 0.328567 0.127965 0.56029  -0.695170892857
 O1 0.327816 0.62802 0.06041  -0.695170892857
 O1 0.327816 0.628029 0.56042  -0.695170892857
 O1 0.828561 0.127958 0.06028  -0.695170892857
 O1 0.82856 0.127965 0.56029  -0.695170892857
 O1 0.82781 0.628021 0.06041  -0.695170892857
 O1 0.82781 0.628028 0.56042  -0.695170892857
 O1 0.397745 0.401613 0.23636  -0.695170892857
 O1 0.397747 0.40162 0.73636  -0.695170892857
 O1 0.396984 0.901493 0.23648  -0.695170892857
 O1 0.396984 0.901499 0.73649  -0.695170892857
 O1 0.897743 0.401614 0.23636  -0.695170892857
 O1 0.897741 0.40162 0.7363  -0.695170892857
 O1 0.896978 0.901493 0.23648  -0.695170892857
 O1 0.896977 0.901499 0.73649  -0.695170892857
 O1 0.416302 0.407907 0.33113  -0.695170892857
 O1 0.416305 0.407913 0.83114  -0.695170892857
 O1 0.415973 0.907735 0.33119  -0.695170892857
 O1 0.415973 0.907742 0.83120  -0.695170892857
 O1 0.916297 0.407907 0.33113  -0.695170892857
 O1 0.916295 0.407913 0.83114  -0.695170892857
 O1 0.915966 0.907735 0.33119  -0.695170892857
 O1 0.915966 0.907742 0.83120  -0.695170892857
 O1 0.350271 0.144119 0.36772  -0.695170892857
 O1 0.350275 0.144125 0.8677  -0.695170892857
 O1 0.350065 0.64466 0.36760  -0.695170892857
 O1 0.350064 0.644666 0.86761  -0.695170892857
 O1 0.850265 0.144119 0.36772  -0.695170892857
 O1 0.850269 0.144125 0.8677  -0.695170892857
 O1 0.850057 0.64466 0.36760  -0.695170892857
 O1 0.850059 0.644665 0.86761  -0.695170892857
 O1 0.40822 0.216144 0.27592  -0.695170892857
 O1 0.408222 0.216151 0.77592  -0.695170892857
 O1 0.407887 0.71641 0.27562  -0.695170892857
 O1 0.407887 0.716417 0.77563  -0.695170892857
 O1 0.908213 0.216145 0.27592  -0.695170892857
 O1 0.908215 0.216151 0.77592  -0.695170892857
 O1 0.90788 0.716411 0.27562  -0.695170892857
 O1 0.907881 0.716417 0.77563  -0.695170892857
