#======================================================================

# CRYSTAL DATA

#----------------------------------------------------------------------

data_VESTA_phase_1


_pd_phase_name                         MOF
_cell_length_a                         12.17300
_cell_length_b                         15.24100
_cell_length_c                         16.96300
_cell_angle_alpha                      90.01700
_cell_angle_beta                       93.10500
_cell_angle_gamma                      89.93500
_symmetry_space_group_name_H-M         "P 1"
_symmetry_Int_Tables_number            1

loop_
_symmetry_equiv_pos_as_xyz
   "x, y, z"

loop_
   _atom_site_label
   _atom_site_fract_x
   _atom_site_fract_y
   _atom_site_fract_z
 _atom_site_charge
 Al1 0.521432 0.51849 0.25143  1.7629687037
 Al1 0.521491 0.980399 0.75143  1.7629687037
 Al1 0.47851 0.019591 0.24854  1.7629687037
 Al1 0.478547 0.481444 0.74854  1.7629687037
 Cu1 0.972196 0.477723 0.77128  0.605628703704
 Cu1 0.972319 0.022339 0.27102  0.605628703704
 Cu1 0.027682 0.977639 0.72894  0.605628703704
 Cu1 0.027798 0.52227 0.22869  0.605628703704
 H1 0.550786 0.473268 0.42941  0.113595578704
 H1 0.645616 0.450493 0.56107  0.113595578704
 H1 0.939404 0.569647 0.47710  0.113595578704
 H1 0.844099 0.590279 0.3454  0.113595578704
 H1 0.325055 0.413238 0.17888  0.113595578704
 H1 0.183115 0.296843 0.1674  0.113595578704
 H1 0.248 0.231887 0.41370  0.113595578704
 H1 0.386672 0.351188 0.42503  0.113595578704
 H1 0.298534 0.593726 0.31113  0.113595578704
 H1 0.152411 0.703102 0.33299  0.113595578704
 H1 0.298882 0.878183 0.16826  0.113595578704
 H1 0.44733 0.769086 0.14968  0.113595578704
 H1 0.862029 0.547175 0.06002  0.113595578704
 H1 0.738515 0.540657 0.17106  0.113595578704
 H1 0.629571 0.391156 0.91784  0.113595578704
 H1 0.508212 0.383751 0.03069  0.113595578704
 H1 0.550822 0.026301 0.92923  0.113595578704
 H1 0.645504 0.049294 0.06091  0.113595578704
 H1 0.939837 0.930323 0.97703  0.113595578704
 H1 0.844657 0.909473 0.84533  0.113595578704
 H1 0.325343 0.08638 0.67875  0.113595578704
 H1 0.183472 0.203094 0.66738  0.113595578704
 H1 0.248387 0.267945 0.91365  0.113595578704
 H1 0.386986 0.148347 0.92493  0.113595578704
 H1 0.299333 0.905311 0.8121  0.113595578704
 H1 0.152958 0.796367 0.83387  0.113595578704
 H1 0.297275 0.621956 0.66727  0.113595578704
 H1 0.446045 0.730532 0.64886  0.113595578704
 H1 0.862878 0.952597 0.55956  0.113595578704
 H1 0.739148 0.9582 0.67057  0.113595578704
 H1 0.629516 0.10876 0.41799  0.113595578704
 H1 0.507962 0.115192 0.53078  0.113595578704
 H1 0.449174 0.97367 0.07074  0.113595578704
 H1 0.354486 0.950661 0.93907  0.113595578704
 H1 0.060162 0.069654 0.02294  0.113595578704
 H1 0.155348 0.090519 0.15463  0.113595578704
 H1 0.674683 0.913624 0.32121  0.113595578704
 H1 0.816549 0.796908 0.33259  0.113595578704
 H1 0.75159 0.732027 0.08633  0.113595578704
 H1 0.612994 0.851628 0.07505  0.113595578704
 H1 0.700658 0.09467 0.18786  0.113595578704
 H1 0.847032 0.203613 0.16610  0.113595578704
 H1 0.702735 0.378025 0.33270  0.113595578704
 H1 0.553966 0.269449 0.35113  0.113595578704
 H1 0.137138 0.047376 0.44042  0.113595578704
 H1 0.260859 0.041773 0.32940  0.113595578704
 H1 0.370498 0.891197 0.58198  0.113595578704
 H1 0.49204 0.884759 0.4691  0.113595578704
 H1 0.449185 0.526673 0.57056  0.113595578704
 H1 0.354362 0.549449 0.43890  0.113595578704
 H1 0.060546 0.430346 0.52288  0.113595578704
 H1 0.155842 0.409713 0.65458  0.113595578704
 H1 0.674932 0.58673 0.82111  0.113595578704
 H1 0.816853 0.703138 0.83251  0.113595578704
 H1 0.751965 0.768059 0.58627  0.113595578704
 H1 0.613312 0.648744 0.57495  0.113595578704
 H1 0.701409 0.406221 0.68885  0.113595578704
 H1 0.847574 0.296877 0.66700  0.113595578704
 H1 0.701145 0.121765 0.83172  0.113595578704
 H1 0.552657 0.230828 0.85029  0.113595578704
 H1 0.137941 0.452824 0.93995  0.113595578704
 H1 0.261451 0.459319 0.82891  0.113595578704
 H1 0.370453 0.608797 0.08213  0.113595578704
 H1 0.491807 0.616181 0.96928  0.113595578704
 C1 0.690496 0.534694 0.37873  0.451621203704
 C2 0.635493 0.494612 0.44072  -0.133246296296
 C2 0.689055 0.481181 0.51388  -0.133246296296
 C3 0.799247 0.508207 0.52825  -0.150203796296
 C2 0.854349 0.548591 0.46671  -0.133246296296
 C2 0.801038 0.56117 0.39342  -0.133246296296
 C4 0.852758 0.495914 0.60345  0.383788703704
 C1 0.364817 0.390582 0.30293  0.451621203704
 C2 0.307171 0.373781 0.23010  -0.133246296296
 C2 0.228297 0.30833 0.22370  -0.133246296296
 C3 0.20548 0.25658 0.28989  -0.150203796296
 C2 0.264221 0.272191 0.3626  -0.133246296296
 C2 0.342227 0.33819 0.36880  -0.133246296296
 C4 0.126485 0.188722 0.28365  0.383788703704
 C1 0.383925 0.67499 0.23039  0.451621203704
 C2 0.299634 0.657242 0.28203  -0.133246296296
 C2 0.217535 0.718226 0.29361  -0.133246296296
 C3 0.216982 0.79918 0.25330  -0.150203796296
 C2 0.300202 0.816608 0.20059  -0.133246296296
 C2 0.382307 0.755759 0.18961  -0.133246296296
 C4 0.135421 0.863359 0.26451  0.383788703704
 C1 0.61467 0.46207 0.10812  0.451621203704
 C2 0.78388 0.512457 0.05290  -0.133246296296
 C2 0.71488 0.50886 0.11520  -0.133246296296
 C3 0.754214 0.46989 0.98081  -0.150203796296
 C2 0.653894 0.423077 0.97342  -0.133246296296
 C2 0.585985 0.41908 0.03616  -0.133246296296
 C4 0.82307 0.473617 0.91637  0.383788703704
 C1 0.690791 0.964917 0.87862  0.451621203704
 C2 0.635608 0.005029 0.94057  -0.133246296296
 C2 0.689085 0.018584 0.01375  -0.133246296296
 C3 0.79938 0.991662 0.02815  -0.150203796296
 C2 0.854691 0.951282 0.96661  -0.133246296296
 C2 0.801452 0.938581 0.89332  -0.133246296296
 C4 0.852812 0.0 0.10335  0.383788703704
 C1 0.365107 0.108991 0.80280  0.451621203704
 C2 0.307469 0.125893 0.72998  -0.133246296296
 C2 0.228636 0.191516 0.72362  -0.133246296296
 C3 0.205852 0.24333 0.78982  -0.150203796296
 C2 0.264579 0.227598 0.86254  -0.133246296296
 C2 0.34254 0.161431 0.86870  -0.133246296296
 C4 0.126873 0.311346 0.78365  0.383788703704
 C1 0.383675 0.824286 0.73046  0.451621203704
 C2 0.299906 0.84201 0.78258  -0.133246296296
 C2 0.217681 0.781282 0.79411  -0.133246296296
 C3 0.216478 0.700632 0.75326  -0.150203796296
 C2 0.299137 0.683262 0.7000  -0.133246296296
 C2 0.381389 0.74384 0.68913  -0.133246296296
 C4 0.134874 0.636657 0.76450  0.383788703704
 C1 0.614782 0.036587 0.60783  0.451621203704
 C2 0.784486 0.98712 0.55256  -0.133246296296
 C2 0.715385 0.990174 0.61483  -0.133246296296
 C3 0.754544 0.029928 0.48065  -0.150203796296
 C2 0.653965 0.076575 0.47342  -0.133246296296
 C2 0.585952 0.080021 0.53611  -0.133246296296
 C4 0.823339 0.026448 0.41618  0.383788703704
 C1 0.30921 0.035065 0.12135  0.451621203704
 C2 0.364388 0.994941 0.05940  -0.133246296296
 C2 0.310908 0.98138 0.98622  -0.133246296296
 C3 0.200614 0.008305 0.9718  -0.150203796296
 C2 0.145308 0.048693 0.03336  -0.133246296296
 C2 0.19855 0.061402 0.10664  -0.133246296296
 C4 0.147178 0.995935 0.89663  0.383788703704
 C1 0.634897 0.891001 0.19717  0.451621203704
 C2 0.692544 0.874104 0.26999  -0.133246296296
 C2 0.771375 0.808479 0.27635  -0.133246296296
 C3 0.794145 0.756656 0.21015  -0.150203796296
 C2 0.735407 0.772381 0.13744  -0.133246296296
 C2 0.657449 0.838549 0.13127  -0.133246296296
 C4 0.873122 0.688639 0.21632  0.383788703704
 C1 0.616321 0.175701 0.26951  0.451621203704
 C2 0.700088 0.157973 0.21740  -0.133246296296
 C2 0.782314 0.218699 0.20586  -0.133246296296
 C3 0.783521 0.29935 0.2467  -0.150203796296
 C2 0.70087 0.316719 0.29993  -0.133246296296
 C2 0.618616 0.256144 0.3108  -0.133246296296
 C4 0.865121 0.363327 0.23546  0.383788703704
 C1 0.38522 0.963373 0.39213  0.451621203704
 C2 0.215529 0.012851 0.44741  -0.133246296296
 C2 0.284622 0.009793 0.38515  -0.133246296296
 C3 0.245475 0.970042 0.51932  -0.150203796296
 C2 0.346048 0.923386 0.52654  -0.133246296296
 C2 0.414053 0.919935 0.46385  -0.133246296296
 C4 0.176681 0.97352 0.58380  0.383788703704
 C1 0.309462 0.465274 0.62125  0.451621203704
 C2 0.364472 0.50534 0.55926  -0.133246296296
 C2 0.310916 0.51877 0.48609  -0.133246296296
 C3 0.20072 0.491754 0.4717  -0.150203796296
 C2 0.145607 0.451388 0.53327  -0.133246296296
 C2 0.198914 0.438812 0.60656  -0.133246296296
 C4 0.147214 0.504046 0.3965  0.383788703704
 C1 0.635165 0.609369 0.69706  0.451621203704
 C2 0.69281 0.626183 0.76988  -0.133246296296
 C2 0.771676 0.691641 0.77628  -0.133246296296
 C3 0.794489 0.743387 0.71009  -0.150203796296
 C2 0.735751 0.727761 0.63737  -0.133246296296
 C2 0.657754 0.661755 0.63118  -0.133246296296
 C4 0.87348 0.811253 0.71631  0.383788703704
 C1 0.61604 0.324939 0.76958  0.451621203704
 C2 0.70033 0.342705 0.71795  -0.133246296296
 C2 0.782451 0.281739 0.70637  -0.133246296296
 C3 0.783025 0.200785 0.74668  -0.150203796296
 C2 0.699807 0.18334 0.79939  -0.133246296296
 C2 0.61768 0.244171 0.81036  -0.133246296296
 C4 0.864599 0.136619 0.73547  0.383788703704
 C1 0.38532 0.537885 0.89185  0.451621203704
 C2 0.2161 0.487528 0.94707  -0.133246296296
 C2 0.285097 0.491113 0.88477  -0.133246296296
 C3 0.245782 0.530089 0.0191  -0.150203796296
 C2 0.346116 0.576883 0.02655  -0.133246296296
 C2 0.414023 0.580868 0.96381  -0.133246296296
 C4 0.176929 0.52637 0.08360  0.383788703704
 N1 0.878149 0.476887 0.86185  -0.456328796296
 N1 0.062887 0.130948 0.2786  -0.456328796296
 N1 0.07046 0.918912 0.27272  -0.456328796296
 N1 0.895856 0.484649 0.66610  -0.456328796296
 N1 0.878356 0.023247 0.36162  -0.456328796296
 N1 0.063241 0.369214 0.77879  -0.456328796296
 N1 0.069907 0.581252 0.77279  -0.456328796296
 N1 0.895887 0.015301 0.16599  -0.456328796296
 N1 0.121662 0.976717 0.63835  -0.456328796296
 N1 0.936751 0.63077 0.22118  -0.456328796296
 N1 0.930082 0.418734 0.22716  -0.456328796296
 N1 0.104099 0.98465 0.83399  -0.456328796296
 N1 0.12185 0.523103 0.13812  -0.456328796296
 N1 0.937075 0.869029 0.72127  -0.456328796296
 N1 0.929566 0.081072 0.72725  -0.456328796296
 N1 0.104123 0.515309 0.33387  -0.456328796296
 O1 0.643121 0.547328 0.30705  -0.742423796296
 O1 0.438776 0.455165 0.31255  -0.742423796296
 O1 0.462876 0.617359 0.21652  -0.742423796296
 O1 0.546786 0.456273 0.16703  -0.742423796296
 O1 0.643454 0.952127 0.80696  -0.742423796296
 O1 0.439066 0.044293 0.81240  -0.742423796296
 O1 0.462839 0.881612 0.71673  -0.742423796296
 O1 0.546628 0.041575 0.66659  -0.742423796296
 O1 0.356555 0.047875 0.19300  -0.742423796296
 O1 0.560944 0.955703 0.18757  -0.742423796296
 O1 0.537155 0.118379 0.28325  -0.742423796296
 O1 0.453377 0.958399 0.33337  -0.742423796296
 O1 0.356848 0.452624 0.69292  -0.742423796296
 O1 0.561215 0.54478 0.68743  -0.742423796296
 O1 0.537068 0.382554 0.78344  -0.742423796296
 O1 0.453203 0.543672 0.8329  -0.742423796296
