#======================================================================

# CRYSTAL DATA

#----------------------------------------------------------------------

data_VESTA_phase_1


_pd_phase_name                         MOF
_cell_length_a                         12.79000
_cell_length_b                         21.47300
_cell_length_c                         21.46900
_cell_angle_alpha                      84.44000
_cell_angle_beta                       71.87500
_cell_angle_gamma                      71.81700
_symmetry_space_group_name_H-M         "P 1"
_symmetry_Int_Tables_number            1

loop_
_symmetry_equiv_pos_as_xyz
   "x, y, z"

loop_
   _atom_site_label
   _atom_site_fract_x
   _atom_site_fract_y
   _atom_site_fract_z
 _atom_site_charge
 Ca1 0.370372 0.806177 0.20133  1.6176646875
 Ca1 0.878033 0.695129 0.29748  1.6176646875
 Ca1 0.569969 0.798709 0.30499  1.6176646875
 Ca1 0.178273 0.702598 0.1940  1.6176646875
 Ca1 0.629599 0.193828 0.79868  1.6176646875
 Ca1 0.121939 0.304873 0.7025  1.6176646875
 Ca1 0.430002 0.201294 0.69502  1.6176646875
 Ca1 0.821698 0.297407 0.80600  1.6176646875
 H1 0.782995 0.758198 0.18247  0.1145516875
 H1 0.04929 0.721053 0.9981  0.1145516875
 H1 0.691443 0.788308 0.00316  0.1145516875
 H1 0.87955 0.915423 0.80807  0.1145516875
 H1 0.034733 0.585745 0.81497  0.1145516875
 H1 0.219762 0.742935 0.31624  0.1145516875
 H1 0.258645 0.777298 0.50021  0.1145516875
 H1 0.974594 0.711412 0.49595  0.1145516875
 H1 0.088433 0.583531 0.69113  0.1145516875
 H1 0.941972 0.913038 0.68398  0.1145516875
 H1 0.961611 0.817534 0.2572  0.1145516875
 H1 0.036175 0.0 0.22386  0.1145516875
 H1 0.683236 0.997353 0.29039  0.1145516875
 H1 0.681841 0.192276 0.41854  0.1145516875
 H1 0.842104 0.185386 0.08888  0.1145516875
 H1 0.54107 0.683811 0.24187  0.1145516875
 H1 0.76748 0.499494 0.28010  0.1145516875
 H1 0.479728 0.504615 0.21302  0.1145516875
 H1 0.781971 0.309506 0.08652  0.1145516875
 H1 0.629866 0.316139 0.41593  0.1145516875
 H1 0.216976 0.241805 0.81754  0.1145516875
 H1 0.950681 0.27895 0.  0.1145516875
 H1 0.308527 0.211693 0.99685  0.1145516875
 H1 0.120419 0.08458 0.19195  0.1145516875
 H1 0.965235 0.414258 0.18504  0.1145516875
 H1 0.780211 0.257068 0.68377  0.1145516875
 H1 0.741322 0.222707 0.49980  0.1145516875
 H1 0.025375 0.288593 0.5040  0.1145516875
 H1 0.911534 0.416473 0.30888  0.1145516875
 H1 0.057997 0.086967 0.31604  0.1145516875
 H1 0.03836 0.18247 0.7428  0.1145516875
 H1 0.963794 0.998453 0.77615  0.1145516875
 H1 0.316733 0.002649 0.70962  0.1145516875
 H1 0.318127 0.807726 0.58147  0.1145516875
 H1 0.157861 0.814618 0.91113  0.1145516875
 H1 0.4589 0.316192 0.75814  0.1145516875
 H1 0.232488 0.500509 0.71992  0.1145516875
 H1 0.52024 0.495389 0.78  0.1145516875
 H1 0.217997 0.690498 0.91349  0.1145516875
 H1 0.370103 0.683863 0.58408  0.1145516875
 C1 0.599139 0.796092 0.1340  0.7669121875
 C1 0.015879 0.717382 0.12822  0.7669121875
 C2 0.724275 0.776032 0.09678  -0.0934195625
 C3 0.808506 0.757115 0.12929  -0.0445643125
 C2 0.925397 0.737075 0.09391  -0.0934195625
 C3 0.958149 0.736438 0.02535  -0.0445643125
 C4 0.874031 0.754679 0.99320  0.1530521875
 C3 0.757486 0.774272 0.02818  -0.0445643125
 C5 0.952942 0.690452 0.89227  0.5089121875
 C5 0.892985 0.814232 0.88955  0.5089121875
 C3 0.915812 0.869238 0.78127  -0.0445643125
 C2 0.927731 0.811262 0.81703  -0.0934195625
 C3 0.026407 0.63093 0.7864  -0.0445643125
 C2 0.984685 0.690286 0.819  -0.0934195625
 C2 0.972368 0.750073 0.78439  -0.0934195625
 C1 0.025579 0.704982 0.36492  0.7669121875
 C1 0.355065 0.782576 0.37036  0.7669121875
 C2 0.091477 0.724342 0.40219  -0.0934195625
 C3 0.189668 0.743331 0.36945  -0.0445643125
 C2 0.249689 0.762649 0.40462  -0.0934195625
 C3 0.21129 0.762448 0.47316  -0.0445643125
 C4 0.112668 0.744301 0.50563  0.1530521875
 C3 0.052096 0.72541 0.47085  -0.0445643125
 C5 0.030698 0.808218 0.60665  0.5089121875
 C5 0.082577 0.684606 0.60938  0.5089121875
 C3 0.056849 0.629652 0.71777  -0.0445643125
 C2 0.047383 0.687557 0.68193  -0.0934195625
 C3 0.949633 0.867891 0.71251  -0.0445643125
 C2 0.994106 0.808437 0.67928  -0.0934195625
 C2 0.005095 0.748688 0.71457  -0.0934195625
 C1 0.727767 0.866179 0.2955  0.7669121875
 C1 0.138403 0.871609 0.21765  0.7669121875
 C2 0.813769 0.903505 0.27656  -0.0934195625
 C3 0.931885 0.870754 0.25722  -0.0445643125
 C2 0.012115 0.905911 0.23802  -0.0934195625
 C3 0.973334 0.974463 0.23869  -0.0445643125
 C4 0.855679 0.006916 0.25731  0.1530521875
 C3 0.775388 0.972186 0.27611  -0.0445643125
 C5 0.832569 0.107961 0.19362  0.5089121875
 C5 0.770693 0.110565 0.31737  0.5089121875
 C3 0.693188 0.218958 0.37229  -0.0445643125
 C2 0.73779 0.183148 0.31439  -0.0934195625
 C3 0.807692 0.213878 0.13400  -0.0445643125
 C2 0.796712 0.180599 0.19341  -0.0934195625
 C2 0.75223 0.215832 0.25316  -0.0934195625
 C1 0.396292 0.635388 0.20454  0.7669121875
 C1 0.731012 0.629479 0.28287  0.7669121875
 C2 0.500385 0.598138 0.22468  -0.0934195625
 C3 0.5651 0.630632 0.24330  -0.0445643125
 C2 0.660862 0.595218 0.26351  -0.0934195625
 C3 0.692601 0.526654 0.26456  -0.0445643125
 C4 0.627302 0.494501 0.24657  0.1530521875
 C3 0.531324 0.529559 0.22687  -0.0445643125
 C5 0.646295 0.393491 0.31094  0.5089121875
 C5 0.701218 0.390856 0.18737  0.5089121875
 C3 0.775196 0.282657 0.13263  -0.0445643125
 C2 0.733132 0.318357 0.19048  -0.0934195625
 C3 0.663824 0.287672 0.37081  -0.0445643125
 C2 0.677571 0.320926 0.3113  -0.0934195625
 C2 0.720846 0.285653 0.25167  -0.0934195625
 C1 0.400832 0.203912 0.86596  0.7669121875
 C1 0.984091 0.282623 0.871  0.7669121875
 C2 0.275695 0.22397 0.90323  -0.0934195625
 C3 0.191464 0.242885 0.8707  -0.0445643125
 C2 0.074573 0.262927 0.90610  -0.0934195625
 C3 0.041822 0.263563 0.97467  -0.0445643125
 C4 0.12594 0.245322 0.0068  0.1530521875
 C3 0.242485 0.225728 0.97183  -0.0445643125
 C5 0.047028 0.30955 0.10774  0.5089121875
 C5 0.106985 0.185771 0.11046  0.5089121875
 C3 0.084157 0.130766 0.21874  -0.0445643125
 C2 0.072237 0.188741 0.18298  -0.0934195625
 C3 0.973561 0.369074 0.2135  -0.0445643125
 C2 0.015283 0.309717 0.18032  -0.0934195625
 C2 0.0276 0.249931 0.21562  -0.0934195625
 C1 0.974395 0.295018 0.63509  0.7669121875
 C1 0.644908 0.217424 0.62965  0.7669121875
 C2 0.90849 0.275664 0.59782  -0.0934195625
 C3 0.810292 0.256682 0.6305  -0.0445643125
 C2 0.750279 0.237357 0.59539  -0.0934195625
 C3 0.788675 0.237561 0.52685  -0.0445643125
 C4 0.887298 0.255707 0.49438  0.1530521875
 C3 0.947869 0.274599 0.52916  -0.0445643125
 C5 0.969272 0.191787 0.39336  0.5089121875
 C5 0.91739 0.315399 0.39063  0.5089121875
 C3 0.943118 0.370352 0.28224  -0.0445643125
 C2 0.952583 0.312447 0.31808  -0.0934195625
 C3 0.050336 0.132113 0.28750  -0.0445643125
 C2 0.005863 0.191568 0.32073  -0.0934195625
 C2 0.994872 0.251317 0.28544  -0.0934195625
 C1 0.272204 0.133823 0.70451  0.7669121875
 C1 0.861568 0.128395 0.78236  0.7669121875
 C2 0.186201 0.096498 0.72345  -0.0934195625
 C3 0.068085 0.129249 0.74279  -0.0445643125
 C2 0.987855 0.094093 0.76199  -0.0934195625
 C3 0.026635 0.025541 0.76132  -0.0445643125
 C4 0.14429 0.993088 0.74270  0.1530521875
 C3 0.224582 0.027818 0.72390  -0.0445643125
 C5 0.167396 0.892042 0.80639  0.5089121875
 C5 0.229274 0.889438 0.68264  0.5089121875
 C3 0.30678 0.781045 0.6277  -0.0445643125
 C2 0.262176 0.816855 0.68562  -0.0934195625
 C3 0.192274 0.786126 0.8660  -0.0445643125
 C2 0.203254 0.819405 0.80660  -0.0934195625
 C2 0.247736 0.784172 0.74685  -0.0934195625
 C1 0.60368 0.364615 0.79547  0.7669121875
 C1 0.268959 0.370524 0.71714  0.7669121875
 C2 0.499583 0.401866 0.77533  -0.0934195625
 C3 0.434865 0.369372 0.75672  -0.0445643125
 C2 0.339106 0.404785 0.73650  -0.0934195625
 C3 0.307366 0.473349 0.73546  -0.0445643125
 C4 0.372664 0.505503 0.75344  0.1530521875
 C3 0.468643 0.470444 0.77314  -0.0445643125
 C5 0.353674 0.606512 0.6890  0.5089121875
 C5 0.298751 0.609147 0.8126  0.5089121875
 C3 0.224771 0.717347 0.86738  -0.0445643125
 C2 0.266836 0.681647 0.80953  -0.0934195625
 C3 0.336145 0.712331 0.62920  -0.0445643125
 C2 0.322397 0.679078 0.68869  -0.0934195625
 C2 0.279122 0.71435 0.74835  -0.0934195625
 N1 0.907914 0.753072 0.92245  -0.2706853125
 N1 0.073233 0.745693 0.57638  -0.2706853125
 N1 0.817557 0.077718 0.256  -0.2706853125
 N1 0.659256 0.423797 0.24839  -0.2706853125
 N1 0.092056 0.24693 0.07756  -0.2706853125
 N1 0.926735 0.254312 0.42363  -0.2706853125
 N1 0.182411 0.922286 0.74382  -0.2706853125
 N1 0.340711 0.576207 0.75162  -0.2706853125
 O1 0.568813 0.802327 0.19726  -0.8166015625
 O2 0.524455 0.804966 0.10432  -0.7049128125
 O1 0.985353 0.706663 0.19090  -0.8166015625
 O2 0.119717 0.712498 0.09690  -0.7049128125
 O3 0.963848 0.640359 0.9252  -0.4457453125
 O3 0.854047 0.865762 0.92019  -0.4457453125
 O1 0.067484 0.699136 0.30166  -0.8166015625
 O2 0.92898 0.696258 0.39461  -0.7049128125
 O1 0.378019 0.794277 0.30786  -0.8166015625
 O2 0.42159 0.786806 0.4016  -0.7049128125
 O3 0.025762 0.858276 0.57371  -0.4457453125
 O3 0.118846 0.633184 0.57876  -0.4457453125
 O1 0.763762 0.802891 0.30111  -0.8166015625
 O2 0.622074 0.895882 0.30406  -0.7049128125
 O1 0.173578 0.809152 0.20572  -0.8166015625
 O2 0.209422 0.902836 0.21328  -0.7049128125
 O3 0.873244 0.07495 0.14358  -0.4457453125
 O3 0.759939 0.079785 0.36885  -0.4457453125
 O1 0.372983 0.698522 0.19763  -0.8166015625
 O2 0.330427 0.605694 0.19624  -0.7049128125
 O1 0.689528 0.692236 0.29331  -0.8166015625
 O2 0.829795 0.598094 0.28772  -0.7049128125
 O3 0.611093 0.426329 0.36087  -0.4457453125
 O3 0.710357 0.421475 0.13580  -0.4457453125
 O1 0.431158 0.197676 0.80275  -0.8166015625
 O2 0.475516 0.195036 0.89569  -0.7049128125
 O1 0.014618 0.29334 0.80911  -0.8166015625
 O2 0.880254 0.287506 0.90311  -0.7049128125
 O3 0.036126 0.359643 0.07480  -0.4457453125
 O3 0.145927 0.13424 0.07982  -0.4457453125
 O1 0.932486 0.30087 0.6983  -0.8166015625
 O2 0.070988 0.303748 0.60540  -0.7049128125
 O1 0.621951 0.205729 0.69215  -0.8166015625
 O2 0.578378 0.213199 0.59838  -0.7049128125
 O3 0.974211 0.141729 0.42631  -0.4457453125
 O3 0.881122 0.366822 0.42125  -0.4457453125
 O1 0.236209 0.197112 0.69890  -0.8166015625
 O2 0.377897 0.104121 0.69595  -0.7049128125
 O1 0.826394 0.190853 0.79429  -0.8166015625
 O2 0.790547 0.097169 0.78673  -0.7049128125
 O3 0.126721 0.925054 0.85643  -0.4457453125
 O3 0.240033 0.920218 0.63116  -0.4457453125
 O1 0.626987 0.301482 0.80238  -0.8166015625
 O2 0.669543 0.39431 0.80377  -0.7049128125
 O1 0.310442 0.307767 0.7067  -0.8166015625
 O2 0.170175 0.401909 0.71230  -0.7049128125
 O3 0.388877 0.573674 0.63914  -0.4457453125
 O3 0.289613 0.578529 0.86421  -0.4457453125
