#======================================================================

# CRYSTAL DATA

#----------------------------------------------------------------------

data_VESTA_phase_1


_pd_phase_name                         MOF
_cell_length_a                         14.32200
_cell_length_b                         20.62700
_cell_length_c                         21.41100
_cell_angle_alpha                      89.92400
_cell_angle_beta                       90.05100
_cell_angle_gamma                      90.11600
_symmetry_space_group_name_H-M         "P 1"
_symmetry_Int_Tables_number            1

loop_
_symmetry_equiv_pos_as_xyz
   "x, y, z"

loop_
   _atom_site_label
   _atom_site_fract_x
   _atom_site_fract_y
   _atom_site_fract_z
 _atom_site_charge
 Y1 0.058584 0.165041 0.90919  2.09586705882
 Y1 0.809318 0.342003 0.91752  2.09586705882
 Y1 0.440345 0.835083 0.40968  2.09586705882
 Y1 0.690269 0.659301 0.41670  2.09586705882
 Y1 0.941313 0.664619 0.59059  2.09586705882
 Y1 0.190703 0.841006 0.58337  2.09586705882
 Y1 0.559582 0.334902 0.09091  2.09586705882
 Y1 0.309046 0.15901 0.08296  2.09586705882
 H1 0.710452 0.953056 0.93296  0.31004872549
 H1 0.541674 0.824755 0.78390  0.31004872549
 H1 0.630686 0.729664 0.09716  0.31004872549
 H2 0.691696 0.222101 0.  0.114427892157
 H2 0.543563 0.042445 0.03403  0.114427892157
 H2 0.796917 0.047697 0.92426  0.114427892157
 H2 0.573679 0.818018 0.05244  0.114427892157
 H2 0.610529 0.680318 0.90273  0.114427892157
 H2 0.636473 0.885222 0.86718  0.114427892157
 H2 0.456983 0.835145 0.69257  0.114427892157
 H2 0.557384 0.743885 0.52537  0.114427892157
 H2 0.710922 0.722158 0.69696  0.114427892157
 H2 0.638674 0.701285 0.20410  0.114427892157
 H2 0.623248 0.499302 0.25341  0.114427892157
 H2 0.572018 0.558428 0.06328  0.114427892157
 H1 0.78918 0.047842 0.43319  0.31004872549
 H1 0.959491 0.175929 0.28413  0.31004872549
 H1 0.866185 0.270513 0.59724  0.31004872549
 H2 0.808421 0.778004 0.50639  0.114427892157
 H2 0.956791 0.957394 0.53344  0.114427892157
 H2 0.702384 0.953398 0.42447  0.114427892157
 H2 0.926028 0.181871 0.55267  0.114427892157
 H2 0.890641 0.320694 0.40336  0.114427892157
 H2 0.864822 0.116041 0.36679  0.114427892157
 H2 0.043773 0.16527 0.19231  0.114427892157
 H2 0.942571 0.257229 0.02532  0.114427892157
 H2 0.790909 0.279338 0.19731  0.114427892157
 H2 0.858467 0.298566 0.704  0.114427892157
 H2 0.87506 0.500432 0.75368  0.114427892157
 H2 0.927506 0.441378 0.56393  0.114427892157
 H1 0.28933 0.452231 0.56819  0.31004872549
 H1 0.459777 0.323936 0.71625  0.31004872549
 H1 0.368535 0.229513 0.40257  0.31004872549
 H2 0.308427 0.721717 0.49375  0.114427892157
 H2 0.455502 0.542333 0.46651  0.114427892157
 H2 0.202485 0.546566 0.57664  0.114427892157
 H2 0.423367 0.31748 0.44727  0.114427892157
 H2 0.388687 0.179633 0.59759  0.114427892157
 H2 0.364238 0.384508 0.63288  0.114427892157
 H2 0.543849 0.334824 0.80807  0.114427892157
 H2 0.442597 0.242875 0.97507  0.114427892157
 H2 0.290152 0.220913 0.80310  0.114427892157
 H2 0.359137 0.201325 0.2959  0.114427892157
 H2 0.374981 0.999635 0.24626  0.114427892157
 H2 0.427043 0.058175 0.43634  0.114427892157
 H1 0.210932 0.547279 0.06729  0.31004872549
 H1 0.041334 0.674499 0.21599  0.31004872549
 H1 0.131368 0.770622 0.90267  0.31004872549
 H2 0.19254 0.27814 0.99217  0.114427892157
 H2 0.044306 0.457341 0.9658  0.114427892157
 H2 0.29802 0.453033 0.0755  0.114427892157
 H2 0.074147 0.681678 0.94721  0.114427892157
 H2 0.108548 0.819773 0.09698  0.114427892157
 H2 0.136381 0.615102 0.13278  0.114427892157
 H2 0.956555 0.663956 0.30735  0.114427892157
 H2 0.057577 0.755226 0.47464  0.114427892157
 H2 0.209966 0.778205 0.30292  0.114427892157
 H2 0.139113 0.799155 0.79570  0.114427892157
 H2 0.122934 0.001129 0.7466  0.114427892157
 H2 0.070715 0.941375 0.93645  0.114427892157
 C1 0.82917 0.176214 0.93379  0.802337058824
 C2 0.751211 0.138392 0.96249  -0.131780163399
 C3 0.685605 0.170324 0.99980  -0.0581562745098
 C2 0.611751 0.13541 0.025  -0.131780163399
 C3 0.601992 0.068894 0.  -0.0581562745098
 C4 0.668372 0.036691 0.97750  0.18864872549
 C3 0.743705 0.071643 0.95239  -0.0581562745098
 C1 0.538842 0.169078 0.06402  0.802337058824
 C5 0.603496 0.92451 0.9906  0.53041872549
 C2 0.608703 0.85765 0.96325  -0.131780163399
 C3 0.590873 0.805963 0.00421  -0.0581562745098
 C2 0.591775 0.742128 0.98259  -0.131780163399
 C3 0.609713 0.730137 0.91945  -0.0581562745098
 C2 0.625312 0.781206 0.87789  -0.131780163399
 C3 0.624911 0.845249 0.89977  -0.0581562745098
 C5 0.6449 0.762336 0.81147  0.53041872549
 C4 0.585984 0.780546 0.70278  0.18864872549
 C3 0.509844 0.805678 0.66948  -0.0581562745098
 C2 0.500397 0.793401 0.60561  -0.131780163399
 C1 0.420137 0.821359 0.57020  0.802337058824
 C3 0.565235 0.75403 0.57486  -0.0581562745098
 C2 0.640205 0.728013 0.6081  -0.131780163399
 C1 0.711842 0.686764 0.57625  0.802337058824
 C3 0.651828 0.742015 0.67175  -0.0581562745098
 C5 0.572019 0.68332 0.02190  0.53041872549
 C4 0.603724 0.63634 0.1275  0.18864872549
 C3 0.62635 0.651376 0.18942  -0.0581562745098
 C2 0.634127 0.602284 0.23438  -0.131780163399
 C3 0.617734 0.537394 0.21835  -0.0581562745098
 C2 0.59524 0.522722 0.15633  -0.131780163399
 C3 0.588563 0.571525 0.11105  -0.0581562745098
 C6 0.660085 0.621518 0.2991  0.669307058824
 C6 0.580035 0.454902 0.13447  0.669307058824
 C1 0.669586 0.825194 0.43345  0.802337058824
 C2 0.748422 0.862314 0.46187  -0.131780163399
 C3 0.814455 0.829879 0.49860  -0.0581562745098
 C2 0.88849 0.864544 0.52479  -0.131780163399
 C3 0.89818 0.931196 0.51357  -0.0581562745098
 C4 0.831655 0.963805 0.4771  0.18864872549
 C3 0.755956 0.929153 0.45217  -0.0581562745098
 C1 0.961764 0.830724 0.56264  0.802337058824
 C5 0.897445 0.075776 0.49009  0.53041872549
 C2 0.891834 0.142877 0.46307  -0.131780163399
 C3 0.909193 0.194228 0.50440  -0.0581562745098
 C2 0.908412 0.258235 0.48309  -0.131780163399
 C3 0.891175 0.270753 0.41988  -0.0581562745098
 C2 0.875967 0.220025 0.37797  -0.131780163399
 C3 0.876124 0.155793 0.39958  -0.0581562745098
 C5 0.857334 0.239317 0.31142  0.53041872549
 C4 0.915412 0.22045 0.20286  0.18864872549
 C3 0.990951 0.195001 0.16935  -0.0581562745098
 C2 0.999757 0.207285 0.10540  -0.131780163399
 C1 0.079166 0.178975 0.06956  0.802337058824
 C3 0.935086 0.247071 0.07485  -0.0581562745098
 C2 0.86077 0.273424 0.10837  -0.131780163399
 C1 0.789416 0.315285 0.07678  0.802337058824
 C3 0.849593 0.259275 0.17197  -0.0581562745098
 C5 0.928189 0.316579 0.52292  0.53041872549
 C4 0.894428 0.363499 0.62808  0.18864872549
 C3 0.87122 0.348458 0.68990  -0.0581562745098
 C2 0.863601 0.397557 0.73473  -0.131780163399
 C3 0.880513 0.462398 0.71867  -0.0581562745098
 C2 0.903628 0.477083 0.65678  -0.131780163399
 C3 0.910304 0.428289 0.61161  -0.0581562745098
 C6 0.837736 0.378564 0.79959  0.669307058824
 C6 0.919556 0.544908 0.63499  0.669307058824
 C1 0.170672 0.67497 0.56767  0.802337058824
 C2 0.248606 0.637582 0.53884  -0.131780163399
 C3 0.314291 0.669874 0.50165  -0.0581562745098
 C2 0.387871 0.635181 0.47525  -0.131780163399
 C3 0.397274 0.568567 0.48657  -0.0581562745098
 C4 0.330879 0.536047 0.52328  0.18864872549
 C3 0.255798 0.570758 0.5486  -0.0581562745098
 C1 0.460883 0.669124 0.43719  0.802337058824
 C5 0.394411 0.423921 0.50903  0.53041872549
 C2 0.390071 0.357001 0.53663  -0.131780163399
 C3 0.407116 0.305338 0.49568  -0.0581562745098
 C2 0.406494 0.241472 0.51748  -0.131780163399
 C3 0.389526 0.229474 0.58079  -0.0581562745098
 C2 0.374848 0.280518 0.62236  -0.131780163399
 C3 0.375085 0.344556 0.60030  -0.0581562745098
 C5 0.355848 0.261653 0.68895  0.53041872549
 C4 0.415024 0.279744 0.79752  0.18864872549
 C3 0.490881 0.30512 0.83102  -0.0581562745098
 C2 0.499901 0.292795 0.89496  -0.131780163399
 C1 0.579838 0.321126 0.9305  0.802337058824
 C3 0.435009 0.253048 0.92555  -0.0581562745098
 C2 0.36032 0.226774 0.89206  -0.131780163399
 C1 0.288527 0.185031 0.92360  0.802337058824
 C3 0.349063 0.240927 0.82844  -0.0581562745098
 C5 0.42532 0.1826 0.47821  0.53041872549
 C4 0.394559 0.136184 0.37234  0.18864872549
 C3 0.371655 0.151401 0.310  -0.0581562745098
 C2 0.363876 0.102461 0.26550  -0.131780163399
 C3 0.380571 0.037553 0.28139  -0.0581562745098
 C2 0.403527 0.022697 0.3433  -0.131780163399
 C3 0.410174 0.071358 0.38864  -0.0581562745098
 C6 0.33792 0.121801 0.20071  0.669307058824
 C6 0.419355 0.954894 0.3651  0.669307058824
 C1 0.330615 0.324943 0.06613  0.802337058824
 C2 0.252222 0.362175 0.0374  -0.131780163399
 C3 0.186442 0.329921 0.00025  -0.0581562745098
 C2 0.112466 0.364595 0.9741  -0.131780163399
 C3 0.102808 0.431116 0.98569  -0.0581562745098
 C4 0.169196 0.463577 0.02243  0.18864872549
 C3 0.244663 0.428904 0.04748  -0.0581562745098
 C1 0.039134 0.330912 0.93608  0.802337058824
 C5 0.104363 0.575535 0.00913  0.53041872549
 C2 0.108937 0.642401 0.03658  -0.131780163399
 C3 0.09089 0.693916 0.99550  -0.0581562745098
 C2 0.091015 0.757772 0.01705  -0.131780163399
 C3 0.10834 0.769947 0.08027  -0.0581562745098
 C2 0.124196 0.719037 0.1219  -0.131780163399
 C3 0.124597 0.654965 0.10012  -0.0581562745098
 C5 0.143303 0.738165 0.18841  0.53041872549
 C4 0.085318 0.719126 0.29712  0.18864872549
 C3 0.0 0.693577 0.33046  -0.0581562745098
 C2 0.00037 0.705634 0.39438  -0.131780163399
 C1 0.920541 0.677427 0.43001  0.802337058824
 C3 0.065153 0.74524 0.42512  -0.0581562745098
 C2 0.139669 0.77179 0.39176  -0.131780163399
 C1 0.210905 0.813424 0.42379  0.802337058824
 C3 0.151112 0.75796 0.32814  -0.0581562745098
 C5 0.070923 0.816345 0.9775  0.53041872549
 C4 0.103476 0.863762 0.8722  0.18864872549
 C3 0.126505 0.848977 0.81041  -0.0581562745098
 C2 0.134238 0.898181 0.76554  -0.131780163399
 C3 0.117424 0.962957 0.78162  -0.0581562745098
 C2 0.094341 0.977391 0.84357  -0.131780163399
 C3 0.087725 0.92846 0.88875  -0.0581562745098
 C6 0.160233 0.878992 0.70079  0.669307058824
 C6 0.078352 0.045066 0.86548  0.669307058824
 N1 0.661164 0.970236 0.96293  -0.421144607843
 N1 0.592699 0.795208 0.76701  -0.421144607843
 N1 0.600945 0.687151 0.08331  -0.421144607843
 N1 0.838877 0.030368 0.46280  -0.421144607843
 N1 0.908925 0.205887 0.26716  -0.421144607843
 N1 0.897143 0.312793 0.58386  -0.421144607843
 N1 0.337955 0.469512 0.53768  -0.421144607843
 N1 0.408588 0.294387 0.73322  -0.421144607843
 N1 0.397363 0.186813 0.41661  -0.421144607843
 N1 0.161859 0.529995 0.03709  -0.421144607843
 N1 0.091939 0.704582 0.23286  -0.421144607843
 N1 0.100885 0.812839 0.91636  -0.421144607843
 O1 0.901587 0.146874 0.91469  -0.709665441176
 O1 0.819154 0.237467 0.93062  -0.709665441176
 O1 0.555447 0.225489 0.08580  -0.709665441176
 O1 0.461863 0.139355 0.07197  -0.709665441176
 O2 0.551237 0.936224 0.03475  -0.512287941176
 O1 0.347592 0.839088 0.59985  -0.709665441176
 O1 0.427894 0.825207 0.51114  -0.709665441176
 O1 0.694988 0.663671 0.52220  -0.709665441176
 O1 0.788117 0.677391 0.60535  -0.709665441176
 O2 0.701066 0.719244 0.79939  -0.512287941176
 O1 0.675253 0.578546 0.34145  -0.709665441176
 O1 0.666547 0.682209 0.312  -0.709665441176
 O1 0.567989 0.408039 0.17335  -0.709665441176
 O1 0.57953 0.444109 0.07539  -0.709665441176
 O2 0.535011 0.635097 0.99867  -0.512287941176
 O1 0.596844 0.855273 0.41582  -0.709665441176
 O1 0.67901 0.76398 0.42902  -0.709665441176
 O1 0.946199 0.773887 0.58384  -0.709665441176
 O1 0.038174 0.86092 0.57102  -0.709665441176
 O2 0.950806 0.063699 0.53361  -0.512287941176
 O1 0.152193 0.161152 0.09872  -0.709665441176
 O1 0.070128 0.174943 0.0105  -0.709665441176
 O1 0.806668 0.339009 0.02299  -0.709665441176
 O1 0.713162 0.324584 0.10584  -0.709665441176
 O2 0.802326 0.283083 0.29894  -0.512287941176
 O1 0.822784 0.421821 0.84156  -0.709665441176
 O1 0.831401 0.317998 0.81322  -0.709665441176
 O1 0.930268 0.59187 0.67380  -0.709665441176
 O1 0.921941 0.555592 0.5758  -0.709665441176
 O2 0.967136 0.364499 0.50049  -0.512287941176
 O1 0.098236 0.645157 0.5865  -0.709665441176
 O1 0.180676 0.736242 0.57120  -0.709665441176
 O1 0.444587 0.725633 0.41553  -0.709665441176
 O1 0.537705 0.639463 0.42915  -0.709665441176
 O2 0.444926 0.435924 0.46401  -0.512287941176
 O1 0.652419 0.339285 0.90110  -0.709665441176
 O1 0.571817 0.324871 0.98960  -0.709665441176
 O1 0.305123 0.161561 0.97760  -0.709665441176
 O1 0.212428 0.175548 0.89427  -0.709665441176
 O2 0.29938 0.218653 0.70136  -0.512287941176
 O1 0.321204 0.078786 0.15878  -0.709665441176
 O1 0.333221 0.182475 0.18714  -0.709665441176
 O1 0.431745 0.908064 0.32649  -0.709665441176
 O1 0.420119 0.94416 0.42431  -0.709665441176
 O2 0.460893 0.133952 0.50157  -0.512287941176
 O1 0.40288 0.354934 0.08500  -0.709665441176
 O1 0.321157 0.263608 0.06955  -0.709665441176
 O1 0.054754 0.274365 0.91445  -0.709665441176
 O1 0.962615 0.360896 0.92798  -0.709665441176
 O2 0.052595 0.563642 0.96471  -0.512287941176
 O1 0.847141 0.660627 0.40061  -0.709665441176
 O1 0.929614 0.672485 0.48892  -0.709665441176
 O1 0.193548 0.836484 0.47773  -0.709665441176
 O1 0.287269 0.823085 0.39487  -0.709665441176
 O2 0.19848 0.782033 0.20055  -0.512287941176
 O1 0.176988 0.921874 0.65868  -0.709665441176
 O1 0.165046 0.818277 0.68755  -0.709665441176
 O1 0.06612 0.091931 0.82664  -0.709665441176
 O1 0.077436 0.055777 0.92458  -0.709665441176
 O2 0.032753 0.864197 0.  -0.512287941176
