#======================================================================

# CRYSTAL DATA

#----------------------------------------------------------------------

data_VESTA_phase_1


_pd_phase_name                         MOF
_cell_length_a                         22.76200
_cell_length_b                         13.67100
_cell_length_c                         13.68100
_cell_angle_alpha                      80.11700
_cell_angle_beta                       65.44200
_cell_angle_gamma                      65.50700
_symmetry_space_group_name_H-M         "P 1"
_symmetry_Int_Tables_number            1

loop_
_symmetry_equiv_pos_as_xyz
   "x, y, z"

loop_
   _atom_site_label
   _atom_site_fract_x
   _atom_site_fract_y
   _atom_site_fract_z
 _atom_site_charge
 Zn1 0.163897 0.532526 0.47284  -0.002015
 Zn1 0.663776 0.533636 0.47405  -0.002015
 Zn1 0.418188 0.966682 0.02526  -0.002015
 Zn1 0.916701 0.966823 0.02668  -0.002015
 Zn1 0.401281 0.525513 0.03290  -0.002015
 Zn1 0.900729 0.525585 0.03318  -0.002015
 Zn1 0.43112 0.973792 0.46566  -0.002015
 Zn1 0.930474 0.972805 0.46708  -0.002015
 Zn1 0.335881 0.467287 0.52597  -0.002015
 Zn1 0.836243 0.466777 0.52594  -0.002015
 Zn1 0.081551 0.033288 0.9745  -0.002015
 Zn1 0.583586 0.032831 0.97244  -0.002015
 Zn1 0.098816 0.474442 0.96618  -0.002015
 Zn1 0.599353 0.474067 0.96678  -0.002015
 Zn1 0.068688 0.025962 0.53378  -0.002015
 Zn1 0.56939 0.027699 0.53254  -0.002015
 H1 0.456144 0.453793 0.33697  0.117893125
 H1 0.95628 0.453509 0.33643  0.117893125
 H1 0.479756 0.363852 0.23475  0.117893125
 H1 0.97939 0.363051 0.23502  0.117893125
 H1 0.47608 0.496459 0.19986  0.117893125
 H1 0.97619 0.495303 0.19906  0.117893125
 H1 0.242489 0.569072 0.21808  0.117893125
 H1 0.741959 0.569946 0.21898  0.117893125
 H1 0.100737 0.046328 0.1639  0.117893125
 H1 0.602758 0.045578 0.16210  0.117893125
 H1 0.027902 0.138431 0.26357  0.117893125
 H1 0.530162 0.136638 0.26294  0.117893125
 H1 0.071885 0.0 0.3020  0.117893125
 H1 0.574536 0.0 0.29970  0.117893125
 H1 0.388117 0.928353 0.27970  0.117893125
 H1 0.887776 0.925549 0.28103  0.117893125
 H1 0.123894 0.664256 0.95320  0.117893125
 H1 0.625079 0.663255 0.95098  0.117893125
 H1 0.096748 0.763936 0.86152  0.117893125
 H1 0.597387 0.76435 0.86067  0.117893125
 H1 0.075201 0.802255 0.99312  0.117893125
 H1 0.576656 0.800795 0.9925  0.117893125
 H1 0.351791 0.780884 0.07102  0.117893125
 H1 0.850836 0.780293 0.07338  0.117893125
 H1 0.181316 0.836896 0.55019  0.117893125
 H1 0.682751 0.838461 0.54713  0.117893125
 H1 0.159121 0.735448 0.64019  0.117893125
 H1 0.66079 0.73714 0.63765  0.117893125
 H1 0.222685 0.699394 0.50839  0.117893125
 H1 0.723835 0.700881 0.50558  0.117893125
 H1 0.028204 0.717974 0.42765  0.117893125
 H1 0.527917 0.719011 0.42909  0.117893125
 H1 0.043601 0.545255 0.66236  0.117893125
 H1 0.543636 0.54776 0.66355  0.117893125
 H1 0.020012 0.635268 0.76450  0.117893125
 H1 0.520755 0.638025 0.76497  0.117893125
 H1 0.023878 0.502604 0.79947  0.117893125
 H1 0.523673 0.505886 0.80089  0.117893125
 H1 0.25738 0.431398 0.78075  0.117893125
 H1 0.758199 0.429214 0.78077  0.117893125
 H1 0.399066 0.95342 0.83574  0.117893125
 H1 0.897785 0.953458 0.83693  0.117893125
 H1 0.471838 0.862522 0.73496  0.117893125
 H1 0.970743 0.861248 0.73756  0.117893125
 H1 0.427223 0.994455 0.69813  0.117893125
 H1 0.926787 0.992684 0.69882  0.117893125
 H1 0.11087 0.073979 0.72004  0.117893125
 H1 0.612467 0.073458 0.71843  0.117893125
 H1 0.375876 0.335715 0.0483  0.117893125
 H1 0.875265 0.336327 0.04692  0.117893125
 H1 0.40392 0.233923 0.13790  0.117893125
 H1 0.902201 0.236983 0.13899  0.117893125
 H1 0.424565 0.198523 0.  0.117893125
 H1 0.923734 0.198144 0.  0.117893125
 H1 0.148403 0.219157 0.9271  0.117893125
 H1 0.649113 0.219156 0.92801  0.117893125
 H1 0.317604 0.162812 0.45142  0.117893125
 H1 0.817431 0.162574 0.45126  0.117893125
 H1 0.339629 0.264112 0.36095  0.117893125
 H1 0.839974 0.263352 0.36051  0.117893125
 H1 0.276511 0.300382 0.49298  0.117893125
 H1 0.776614 0.300288 0.49228  0.117893125
 H1 0.471996 0.282124 0.57061  0.117893125
 H1 0.971824 0.281081 0.57123  0.117893125
 C1 0.451022 0.447949 0.26201  -0.408685
 C1 0.950963 0.447332 0.26173  -0.408685
 C2 0.375982 0.484913 0.28035  0.3607475
 C2 0.875837 0.484753 0.28041  0.3607475
 C3 0.280061 0.541391 0.25607  0.17325
 C3 0.779687 0.541934 0.2567  0.17325
 C1 0.054637 0.053661 0.23843  -0.408685
 C1 0.556914 0.052197 0.23675  -0.408685
 C2 0.007748 0.015471 0.21996  0.3607475
 C2 0.509776 0.014638 0.21821  0.3607475
 C3 0.430525 0.956838 0.24200  0.17325
 C3 0.929521 0.95545 0.24352  0.17325
 C1 0.081349 0.738612 0.94617  -0.408685
 C1 0.582439 0.737978 0.94500  -0.408685
 C2 0.015529 0.719775 0.98435  0.3607475
 C2 0.51651 0.719449 0.98337  0.3607475
 C3 0.408404 0.743178 0.0421  0.17325
 C3 0.907473 0.742934 0.04390  0.17325
 C1 0.173224 0.761926 0.55588  -0.408685
 C1 0.674539 0.763523 0.55332  -0.408685
 C2 0.117475 0.780006 0.51712  0.3607475
 C2 0.618387 0.781541 0.51550  0.3607475
 C3 0.051188 0.755877 0.45722  0.17325
 C3 0.551349 0.757063 0.45753  0.17325
 C1 0.048811 0.551181 0.73722  -0.408685
 C1 0.549021 0.553743 0.73825  -0.408685
 C2 0.123865 0.514486 0.71868  0.3607475
 C2 0.624179 0.515895 0.71953  0.3607475
 C3 0.219791 0.458685 0.74282  0.17325
 C3 0.720412 0.45779 0.74312  0.17325
 C1 0.444891 0.946982 0.76111  -0.408685
 C1 0.943946 0.946063 0.76256  -0.408685
 C2 0.491797 0.985046 0.77968  0.3607475
 C2 0.990734 0.98442 0.78111  0.3607475
 C3 0.069021 0.044297 0.75756  0.17325
 C3 0.570445 0.044138 0.75604  0.17325
 C1 0.41868 0.260992 0.05379  -0.408685
 C1 0.917694 0.261933 0.0542  -0.408685
 C2 0.484469 0.279889 0.01568  0.3607475
 C2 0.983638 0.280435 0.01587  0.3607475
 C3 0.091779 0.256764 0.95644  0.17325
 C3 0.592489 0.256634 0.95695  0.17325
 C1 0.325822 0.237741 0.44528  -0.408685
 C1 0.825878 0.237321 0.44496  -0.408685
 C2 0.381915 0.21971 0.48324  0.3607475
 C2 0.881835 0.219068 0.48331  0.3607475
 C3 0.448728 0.244116 0.5417  0.17325
 C3 0.948558 0.243177 0.54226  0.17325
 N1 0.262899 0.52748 0.36181  -0.14223625
 N1 0.762728 0.527949 0.36240  -0.14223625
 N1 0.324861 0.490662 0.37751  -0.14223625
 N1 0.824833 0.490667 0.37774  -0.14223625
 N2 0.349529 0.516387 0.20199  -0.3103975
 N2 0.849168 0.516541 0.20231  -0.3103975
 N1 0.459162 0.971319 0.13633  -0.14223625
 N1 0.957176 0.972002 0.13810  -0.14223625
 N1 0.007463 0.011198 0.12282  -0.14223625
 N1 0.510115 0.009026 0.12093  -0.14223625
 N2 0.46022 0.982272 0.29630  -0.3103975
 N2 0.959233 0.980851 0.29780  -0.3103975
 N1 0.444205 0.637429 0.02788  -0.14223625
 N1 0.943488 0.637419 0.02801  -0.14223625
 N1 0.013264 0.622395 0.9891  -0.14223625
 N1 0.513976 0.622099 0.98954  -0.14223625
 N2 0.450853 0.797552 0.01601  -0.3103975
 N2 0.94972 0.797525 0.01836  -0.3103975
 N1 0.026602 0.861541 0.47245  -0.14223625
 N1 0.52717 0.862848 0.47165  -0.14223625
 N1 0.069168 0.877147 0.51149  -0.14223625
 N1 0.570228 0.878694 0.50945  -0.14223625
 N2 0.10764 0.701785 0.48344  -0.3103975
 N2 0.607991 0.703093 0.48330  -0.3103975
 N1 0.236899 0.472314 0.63708  -0.14223625
 N1 0.73732 0.472306 0.6374  -0.14223625
 N1 0.174934 0.508698 0.62145  -0.14223625
 N1 0.67516 0.510193 0.62221  -0.14223625
 N2 0.150353 0.483466 0.79699  -0.3103975
 N2 0.650913 0.483406 0.79755  -0.3103975
 N1 0.041062 0.028358 0.8630  -0.14223625
 N1 0.542327 0.028548 0.86159  -0.14223625
 N1 0.491766 0.989999 0.87688  -0.14223625
 N1 0.990731 0.989262 0.87833  -0.14223625
 N2 0.039477 0.018578 0.70321  -0.3103975
 N2 0.54077 0.01865 0.70174  -0.3103975
 N1 0.055954 0.362391 0.9717  -0.14223625
 N1 0.556504 0.362286 0.97174  -0.14223625
 N1 0.486779 0.377339 0.0100  -0.14223625
 N1 0.98613 0.377718 0.01053  -0.14223625
 N2 0.049352 0.20242 0.98230  -0.3103975
 N2 0.550217 0.202029 0.98273  -0.3103975
 N1 0.473187 0.138402 0.52697  -0.14223625
 N1 0.972778 0.137445 0.52778  -0.14223625
 N1 0.430278 0.122613 0.48880  -0.14223625
 N1 0.929935 0.121836 0.48935  -0.14223625
 N2 0.392045 0.298068 0.51611  -0.3103975
 N2 0.892081 0.297336 0.51612  -0.3103975
