#======================================================================

# CRYSTAL DATA

#----------------------------------------------------------------------

data_VESTA_phase_1


_pd_phase_name                         MOF
_cell_length_a                         14.72400
_cell_length_b                         22.74500
_cell_length_c                         22.73800
_cell_angle_alpha                      66.22000
_cell_angle_beta                       71.17000
_cell_angle_gamma                      71.18300
_symmetry_space_group_name_H-M         "P 1"
_symmetry_Int_Tables_number            1

loop_
_symmetry_equiv_pos_as_xyz
   "x, y, z"

loop_
   _atom_site_label
   _atom_site_fract_x
   _atom_site_fract_y
   _atom_site_fract_z
 _atom_site_charge
 Cu1 0.168906 0.442756 0.30680  0.267388333333
 Cu1 0.168908 0.442772 0.80680  0.267388333333
 Cu1 0.168909 0.942776 0.30678  0.267388333333
 Cu1 0.16891 0.942779 0.80679  0.267388333333
 Cu1 0.668895 0.442763 0.30680  0.267388333333
 Cu1 0.668903 0.442769 0.80680  0.267388333333
 Cu1 0.668905 0.942769 0.30679  0.267388333333
 Cu1 0.6689 0.942778 0.80679  0.267388333333
 Cu1 0.418863 0.057112 0.19254  0.267388333333
 Cu1 0.418875 0.057127 0.69254  0.267388333333
 Cu1 0.418859 0.557107 0.19255  0.267388333333
 Cu1 0.418878 0.557121 0.69255  0.267388333333
 Cu1 0.918855 0.057115 0.19254  0.267388333333
 Cu1 0.918872 0.057124 0.69254  0.267388333333
 Cu1 0.918855 0.55711 0.19255  0.267388333333
 Cu1 0.918865 0.557119 0.69255  0.267388333333
 H1 0.368896 0.433979 0.22222  0.244188333333
 H1 0.368905 0.433981 0.72224  0.244188333333
 H1 0.368907 0.933983 0.22222  0.244188333333
 H1 0.368915 0.933981 0.72224  0.244188333333
 H1 0.868889 0.433982 0.22223  0.244188333333
 H1 0.868898 0.433981 0.7222  0.244188333333
 H1 0.868899 0.933981 0.22222  0.244188333333
 H1 0.868902 0.933984 0.72223  0.244188333333
 H2 0.120233 0.316162 0.32414  0.122594166667
 H2 0.120234 0.316173 0.82415  0.122594166667
 H2 0.12023 0.816177 0.32413  0.122594166667
 H2 0.120239 0.816177 0.82415  0.122594166667
 H2 0.620216 0.316174 0.32413  0.122594166667
 H2 0.620231 0.316167 0.82415  0.122594166667
 H2 0.620229 0.81617 0.32414  0.122594166667
 H2 0.620232 0.816176 0.82416  0.122594166667
 H2 0.198065 0.255286 0.37606  0.122594166667
 H2 0.198066 0.255284 0.87606  0.122594166667
 H2 0.198065 0.755286 0.37605  0.122594166667
 H2 0.198075 0.755277 0.87606  0.122594166667
 H2 0.698053 0.255277 0.37604  0.122594166667
 H2 0.698066 0.255285 0.87607  0.122594166667
 H2 0.698069 0.755282 0.37606  0.122594166667
 H2 0.698081 0.75527 0.87606  0.122594166667
 H2 0.187998 0.241466 0.30742  0.122594166667
 H2 0.187988 0.241482 0.80742  0.122594166667
 H2 0.187983 0.741486 0.30740  0.122594166667
 H2 0.187985 0.741492 0.80741  0.122594166667
 H2 0.687966 0.241488 0.30739  0.122594166667
 H2 0.68799 0.241474 0.80743  0.122594166667
 H2 0.687983 0.741479 0.30742  0.122594166667
 H2 0.68797 0.741494 0.80741  0.122594166667
 H2 0.0254 0.37618 0.13517  0.122594166667
 H2 0.025405 0.376178 0.63518  0.122594166667
 H2 0.025401 0.876176 0.1351  0.122594166667
 H2 0.025411 0.876178 0.63518  0.122594166667
 H2 0.525384 0.376177 0.1351  0.122594166667
 H2 0.525401 0.376178 0.63519  0.122594166667
 H2 0.525398 0.876176 0.13517  0.122594166667
 H2 0.525412 0.876173 0.63519  0.122594166667
 H2 0.056973 0.288732 0.1713  0.122594166667
 H2 0.056981 0.28873 0.67135  0.122594166667
 H2 0.056975 0.788728 0.17133  0.122594166667
 H2 0.056988 0.78873 0.67135  0.122594166667
 H2 0.556962 0.28873 0.17133  0.122594166667
 H2 0.556974 0.288731 0.67135  0.122594166667
 H2 0.556969 0.788729 0.17134  0.122594166667
 H2 0.556989 0.788727 0.67136  0.122594166667
 H2 0.068285 0.340606 0.20900  0.122594166667
 H2 0.068295 0.340607 0.70901  0.122594166667
 H2 0.068295 0.840605 0.20899  0.122594166667
 H2 0.068295 0.84061 0.70901  0.122594166667
 H2 0.56828 0.340607 0.20899  0.122594166667
 H2 0.568286 0.340604 0.7090  0.122594166667
 H2 0.568284 0.840605 0.20  0.122594166667
 H2 0.568291 0.840609 0.70902  0.122594166667
 H1 0.025177 0.065643 0.27785  0.244188333333
 H1 0.025187 0.065637 0.77787  0.244188333333
 H1 0.025174 0.565636 0.2778  0.244188333333
 H1 0.025182 0.56564 0.77788  0.244188333333
 H1 0.525166 0.065635 0.27786  0.244188333333
 H1 0.525182 0.065641 0.77787  0.244188333333
 H1 0.525162 0.565639 0.27787  0.244188333333
 H1 0.525175 0.565639 0.77788  0.244188333333
 H2 0.260672 0.183143 0.17601  0.122594166667
 H2 0.260658 0.183146 0.67604  0.122594166667
 H2 0.260663 0.683146 0.17602  0.122594166667
 H2 0.260663 0.683155 0.67604  0.122594166667
 H2 0.760651 0.183143 0.17602  0.122594166667
 H2 0.760664 0.183147 0.67603  0.122594166667
 H2 0.760655 0.683145 0.1760  0.122594166667
 H2 0.760654 0.683151 0.67604  0.122594166667
 H2 0.329325 0.244158 0.12405  0.122594166667
 H2 0.329328 0.244146 0.62406  0.122594166667
 H2 0.329335 0.744146 0.12405  0.122594166667
 H2 0.329361 0.744135 0.62405  0.122594166667
 H2 0.829308 0.244151 0.12405  0.122594166667
 H2 0.829329 0.244153 0.62406  0.122594166667
 H2 0.829323 0.744147 0.12405  0.122594166667
 H2 0.829339 0.744138 0.62406  0.122594166667
 H2 0.237076 0.257862 0.19274  0.122594166667
 H2 0.237093 0.257875 0.69275  0.122594166667
 H2 0.23709 0.757873 0.19273  0.122594166667
 H2 0.237126 0.757891 0.69273  0.122594166667
 H2 0.737066 0.257868 0.19273  0.122594166667
 H2 0.737086 0.257871 0.69275  0.122594166667
 H2 0.737081 0.75787 0.19274  0.122594166667
 H2 0.737104 0.757883 0.6927  0.122594166667
 H2 0.036671 0.123325 0.36515  0.122594166667
 H2 0.03667 0.123316 0.86518  0.122594166667
 H2 0.036664 0.623318 0.3651  0.122594166667
 H2 0.036669 0.623318 0.86518  0.122594166667
 H2 0.536655 0.123316 0.36516  0.122594166667
 H2 0.53667 0.123322 0.86517  0.122594166667
 H2 0.536653 0.623322 0.36516  0.122594166667
 H2 0.536654 0.623315 0.8651  0.122594166667
 H2 0.516494 0.21081 0.32934  0.122594166667
 H2 0.516502 0.210815 0.82935  0.122594166667
 H2 0.516491 0.710816 0.32934  0.122594166667
 H2 0.51649 0.71081 0.82937  0.122594166667
 H2 0.0 0.21082 0.32933  0.122594166667
 H2 0.0 0.210811 0.82936  0.122594166667
 H2 0.0 0.710812 0.32934  0.122594166667
 H2 0.0 0.710814 0.82936  0.122594166667
 H2 0.117592 0.159368 0.29152  0.122594166667
 H2 0.117598 0.159362 0.79155  0.122594166667
 H2 0.117596 0.659356 0.29154  0.122594166667
 H2 0.117595 0.659364 0.79155  0.122594166667
 H2 0.617584 0.159358 0.29154  0.122594166667
 H2 0.617595 0.159367 0.79154  0.122594166667
 H2 0.617582 0.659364 0.2915  0.122594166667
 H2 0.617586 0.65936 0.79156  0.122594166667
 H1 0.118682 0.472398 0.18394  0.244188333333
 H1 0.11869 0.472408 0.68394  0.244188333333
 H1 0.118675 0.972396 0.1839  0.244188333333
 H1 0.118692 0.972413 0.68393  0.244188333333
 H1 0.618672 0.472397 0.18394  0.244188333333
 H1 0.618683 0.472404 0.68394  0.244188333333
 H1 0.618667 0.972397 0.1839  0.244188333333
 H1 0.618679 0.972413 0.6839  0.244188333333
 H2 0.37027 0.074112 0.06603  0.122594166667
 H2 0.370278 0.074128 0.56604  0.122594166667
 H2 0.370264 0.574115 0.06604  0.122594166667
 H2 0.370274 0.574129 0.56604  0.122594166667
 H2 0.870265 0.074115 0.06602  0.122594166667
 H2 0.870269 0.074121 0.56604  0.122594166667
 H2 0.870259 0.57412 0.06604  0.122594166667
 H2 0.870255 0.57411 0.56605  0.122594166667
 H2 0.448046 0.126022 0.50500  0.122594166667
 H2 0.448036 0.126022 0.  0.122594166667
 H2 0.448055 0.626013 0.50500  0.122594166667
 H2 0.448042 0.626009 0.  0.122594166667
 H2 0.948035 0.126016 0.50500  0.122594166667
 H2 0.948031 0.126029 0.  0.122594166667
 H2 0.948024 0.626005 0.50501  0.122594166667
 H2 0.94804 0.626013 0.  0.122594166667
 H2 0.438022 0.057294 0.99137  0.122594166667
 H2 0.438008 0.057278 0.49139  0.122594166667
 H2 0.438 0.557273 0.99139  0.122594166667
 H2 0.437999 0.557268 0.49140  0.122594166667
 H2 0.938022 0.057303 0.9913  0.122594166667
 H2 0.937999 0.05727 0.491  0.122594166667
 H2 0.937996 0.557278 0.99139  0.122594166667
 H2 0.93799 0.557259 0.49140  0.122594166667
 H2 0.274953 0.385203 0.12632  0.122594166667
 H2 0.274961 0.385207 0.62633  0.122594166667
 H2 0.274947 0.885208 0.12632  0.122594166667
 H2 0.274967 0.885218 0.62632  0.122594166667
 H2 0.774947 0.385204 0.12633  0.122594166667
 H2 0.774948 0.3852 0.62633  0.122594166667
 H2 0.774942 0.88521 0.12632  0.122594166667
 H2 0.774954 0.885217 0.62632  0.122594166667
 H2 0.306947 0.421294 0.03885  0.122594166667
 H2 0.306951 0.421298 0.53885  0.122594166667
 H2 0.306944 0.921297 0.03884  0.122594166667
 H2 0.306959 0.921307 0.5388  0.122594166667
 H2 0.80694 0.421295 0.03885  0.122594166667
 H2 0.806942 0.421288 0.5388  0.122594166667
 H2 0.806935 0.921296 0.03884  0.122594166667
 H2 0.806949 0.921311 0.53884  0.122594166667
 H2 0.318132 0.458902 0.09083  0.122594166667
 H2 0.318134 0.458908 0.59084  0.122594166667
 H2 0.318135 0.958902 0.09083  0.122594166667
 H2 0.31814 0.958919 0.59083  0.122594166667
 H2 0.818121 0.458905 0.09083  0.122594166667
 H2 0.818129 0.458898 0.59084  0.122594166667
 H2 0.818125 0.958907 0.09083  0.122594166667
 H2 0.818129 0.958916 0.59083  0.122594166667
 H1 0.275317 0.027872 0.315  0.244188333333
 H1 0.275318 0.027876 0.81550  0.244188333333
 H1 0.275303 0.527862 0.31550  0.244188333333
 H1 0.275311 0.527872 0.81551  0.244188333333
 H1 0.775304 0.027877 0.31549  0.244188333333
 H1 0.775312 0.02787 0.8155  0.244188333333
 H1 0.775296 0.527865 0.31550  0.244188333333
 H1 0.775306 0.527868 0.81551  0.244188333333
 H2 0.010742 0.425931 0.43316  0.122594166667
 H2 0.010751 0.42594 0.93316  0.122594166667
 H2 0.010748 0.925945 0.43315  0.122594166667
 H2 0.01077 0.925937 0.93315  0.122594166667
 H2 0.510738 0.425932 0.43316  0.122594166667
 H2 0.510745 0.425937 0.93316  0.122594166667
 H2 0.510757 0.925933 0.43315  0.122594166667
 H2 0.51075 0.925942 0.93315  0.122594166667
 H2 0.079673 0.373988 0.99399  0.122594166667
 H2 0.079668 0.373977 0.49401  0.122594166667
 H2 0.07966 0.874002 0.99400  0.122594166667
 H2 0.07967 0.873991 0.49400  0.122594166667
 H2 0.579661 0.373988 0.99399  0.122594166667
 H2 0.579659 0.373982 0.49401  0.122594166667
 H2 0.579645 0.874001 0.99400  0.122594166667
 H2 0.579672 0.873992 0.49401  0.122594166667
 H2 0.487374 0.442522 0.50795  0.122594166667
 H2 0.48738 0.44252 0.  0.122594166667
 H2 0.487376 0.942534 0.50794  0.122594166667
 H2 0.487364 0.942541 0.  0.122594166667
 H2 0.987365 0.442516 0.50795  0.122594166667
 H2 0.987379 0.442519 0.  0.122594166667
 H2 0.987368 0.942532 0.50794  0.122594166667
 H2 0.987356 0.942545 0.  0.122594166667
 H2 0.286877 0.115102 0.37331  0.122594166667
 H2 0.286876 0.115106 0.8733  0.122594166667
 H2 0.286855 0.615095 0.37333  0.122594166667
 H2 0.286867 0.615101 0.87333  0.122594166667
 H2 0.786852 0.115115 0.37331  0.122594166667
 H2 0.786877 0.115098 0.87333  0.122594166667
 H2 0.786854 0.615096 0.37332  0.122594166667
 H2 0.78686 0.615097 0.87334  0.122594166667
 H2 0.266497 0.079226 0.4608  0.122594166667
 H2 0.266509 0.079222 0.9608  0.122594166667
 H2 0.266485 0.579216 0.46086  0.122594166667
 H2 0.266496 0.579221 0.96086  0.122594166667
 H2 0.766483 0.079237 0.46084  0.122594166667
 H2 0.7665 0.079218 0.96086  0.122594166667
 H2 0.766483 0.579218 0.46085  0.122594166667
 H2 0.766488 0.579216 0.96087  0.122594166667
 H2 0.367673 0.041454 0.40940  0.122594166667
 H2 0.36768 0.041458 0.90940  0.122594166667
 H2 0.367659 0.54145 0.40941  0.122594166667
 H2 0.36767 0.541455 0.90941  0.122594166667
 H2 0.867659 0.041471 0.40939  0.122594166667
 H2 0.867672 0.041448 0.90941  0.122594166667
 H2 0.867656 0.541451 0.40940  0.122594166667
 H2 0.867662 0.541451 0.90942  0.122594166667
 C1 0.368846 0.283496 0.25108  -0.187426666667
 C1 0.36885 0.283499 0.75110  -0.187426666667
 C1 0.368846 0.783501 0.25108  -0.187426666667
 C1 0.368859 0.7835 0.75110  -0.187426666667
 C1 0.868834 0.283503 0.25107  -0.187426666667
 C1 0.868844 0.283499 0.751  -0.187426666667
 C1 0.868842 0.783499 0.25108  -0.187426666667
 C1 0.868846 0.783503 0.75109  -0.187426666667
 C2 0.420867 0.333869 0.22172  0.192738333333
 C2 0.420875 0.33387 0.7217  0.192738333333
 C2 0.420871 0.833872 0.22172  0.192738333333
 C2 0.420882 0.833871 0.7217  0.192738333333
 C2 0.920858 0.333874 0.22172  0.192738333333
 C2 0.920869 0.333869 0.7217  0.192738333333
 C2 0.920866 0.83387 0.22172  0.192738333333
 C2 0.920872 0.833873 0.72173  0.192738333333
 C2 0.274147 0.311708 0.28271  0.192738333333
 C2 0.274148 0.311714 0.78271  0.192738333333
 C2 0.274144 0.811717 0.28270  0.192738333333
 C2 0.274153 0.811716 0.78271  0.192738333333
 C2 0.774132 0.311713 0.28270  0.192738333333
 C2 0.774146 0.311711 0.78272  0.192738333333
 C2 0.774143 0.811711 0.28271  0.192738333333
 C2 0.774146 0.811713 0.7827  0.192738333333
 C3 0.190447 0.279544 0.3245  -0.348445416667
 C3 0.190446 0.279552 0.82454  -0.348445416667
 C3 0.190441 0.779556 0.32452  -0.348445416667
 C3 0.190449 0.779555 0.8245  -0.348445416667
 C3 0.690427 0.279553 0.32452  -0.348445416667
 C3 0.690444 0.279549 0.82455  -0.348445416667
 C3 0.690442 0.77955 0.32453  -0.348445416667
 C3 0.690441 0.779553 0.82454  -0.348445416667
 C3 0.023258 0.334937 0.18209  -0.348445416667
 C3 0.023265 0.334936 0.68210  -0.348445416667
 C3 0.023263 0.834934 0.18209  -0.348445416667
 C3 0.02327 0.834937 0.68211  -0.348445416667
 C3 0.523247 0.334936 0.18209  -0.348445416667
 C3 0.523258 0.334936 0.68211  -0.348445416667
 C3 0.523255 0.834935 0.18209  -0.348445416667
 C3 0.523269 0.834934 0.68212  -0.348445416667
 C1 0.403516 0.21603 0.24913  -0.187426666667
 C1 0.403524 0.216035 0.74914  -0.187426666667
 C1 0.403516 0.716036 0.24913  -0.187426666667
 C1 0.403525 0.716034 0.74915  -0.187426666667
 C1 0.903496 0.216035 0.24913  -0.187426666667
 C1 0.903517 0.216032 0.74914  -0.187426666667
 C1 0.903508 0.716032 0.24913  -0.187426666667
 C1 0.903511 0.716033 0.74915  -0.187426666667
 C2 0.476479 0.165707 0.27852  0.192738333333
 C2 0.476485 0.165711 0.77853  0.192738333333
 C2 0.476475 0.665712 0.27852  0.192738333333
 C2 0.476488 0.66571 0.77853  0.192738333333
 C2 0.976477 0.165716 0.27850  0.192738333333
 C2 0.976477 0.165707 0.77853  0.192738333333
 C2 0.976474 0.665708 0.27852  0.192738333333
 C2 0.976483 0.665712 0.77853  0.192738333333
 C2 0.368753 0.187798 0.21737  0.192738333333
 C2 0.368757 0.187802 0.71738  0.192738333333
 C2 0.368754 0.6878 0.21737  0.192738333333
 C2 0.368776 0.687803 0.71738  0.192738333333
 C2 0.868748 0.187804 0.21736  0.192738333333
 C2 0.868755 0.187802 0.71738  0.192738333333
 C2 0.868752 0.687799 0.21737  0.192738333333
 C2 0.868766 0.687804 0.7173  0.192738333333
 C3 0.29464 0.21985 0.17559  -0.348445416667
 C3 0.294643 0.219853 0.6756  -0.348445416667
 C3 0.294644 0.719851 0.17559  -0.348445416667
 C3 0.294664 0.719856 0.67560  -0.348445416667
 C3 0.794624 0.21985 0.17559  -0.348445416667
 C3 0.794642 0.219853 0.67560  -0.348445416667
 C3 0.794636 0.71985 0.17559  -0.348445416667
 C3 0.794648 0.719853 0.67560  -0.348445416667
 C3 0.040054 0.164712 0.3183  -0.348445416667
 C3 0.040058 0.164705 0.81837  -0.348445416667
 C3 0.040056 0.664704 0.31836  -0.348445416667
 C3 0.040056 0.664707 0.81837  -0.348445416667
 C3 0.540045 0.164703 0.31836  -0.348445416667
 C3 0.540056 0.16471 0.81836  -0.348445416667
 C3 0.540043 0.664709 0.31836  -0.348445416667
 C3 0.540045 0.664704 0.81838  -0.348445416667
 C1 0.1189 0.001154 0.03339  -0.187426666667
 C1 0.118902 0.001142 0.53340  -0.187426666667
 C1 0.118886 0.501133 0.03340  -0.187426666667
 C1 0.118883 0.501125 0.5334  -0.187426666667
 C1 0.618889 0.001146 0.03339  -0.187426666667
 C1 0.618893 0.001145 0.53340  -0.187426666667
 C1 0.618876 0.50113 0.03341  -0.187426666667
 C1 0.61888 0.501125 0.53341  -0.187426666667
 C2 0.170787 0.471759 0.0838  0.192738333333
 C2 0.17079 0.471761 0.58385  0.192738333333
 C2 0.170775 0.97175 0.08384  0.192738333333
 C2 0.17079 0.971762 0.58384  0.192738333333
 C2 0.670777 0.471758 0.08385  0.192738333333
 C2 0.670787 0.471762 0.58385  0.192738333333
 C2 0.670769 0.971753 0.08384  0.192738333333
 C2 0.670782 0.971768 0.58384  0.192738333333
 C2 0.024164 0.03276 0.06157  0.192738333333
 C2 0.024174 0.032762 0.56158  0.192738333333
 C2 0.024163 0.532764 0.06158  0.192738333333
 C2 0.024162 0.532759 0.56159  0.192738333333
 C2 0.524157 0.03276 0.0615  0.192738333333
 C2 0.524167 0.032768 0.56158  0.192738333333
 C2 0.524153 0.532761 0.06158  0.192738333333
 C2 0.524163 0.532767 0.56158  0.192738333333
 C3 0.440484 0.074506 0.02938  -0.348445416667
 C3 0.440489 0.074505 0.5293  -0.348445416667
 C3 0.440474 0.574497 0.02939  -0.348445416667
 C3 0.440482 0.574499 0.52939  -0.348445416667
 C3 0.94048 0.074513 0.02938  -0.348445416667
 C3 0.94048 0.074499 0.52939  -0.348445416667
 C3 0.940469 0.574501 0.02939  -0.348445416667
 C3 0.940464 0.574489 0.52940  -0.348445416667
 C3 0.273098 0.432088 0.08504  -0.348445416667
 C3 0.273103 0.432092 0.58505  -0.348445416667
 C3 0.273095 0.932094 0.08504  -0.348445416667
 C3 0.273109 0.932103 0.58504  -0.348445416667
 C3 0.77309 0.432089 0.08504  -0.348445416667
 C3 0.773095 0.432084 0.58505  -0.348445416667
 C3 0.773088 0.932094 0.08504  -0.348445416667
 C3 0.773098 0.932104 0.58504  -0.348445416667
 C1 0.153598 0.499089 0.46596  -0.187426666667
 C1 0.153609 0.499094 0.96596  -0.187426666667
 C1 0.153604 0.999099 0.46594  -0.187426666667
 C1 0.153612 0.999096 0.96595  -0.187426666667
 C1 0.653593 0.499094 0.46595  -0.187426666667
 C1 0.653599 0.499093 0.96596  -0.187426666667
 C1 0.653596 0.999105 0.46594  -0.187426666667
 C1 0.653597 0.999098 0.96595  -0.187426666667
 C2 0.226594 0.028496 0.41562  0.192738333333
 C2 0.226593 0.028501 0.91563  0.192738333333
 C2 0.226579 0.528487 0.41563  0.192738333333
 C2 0.226589 0.528494 0.91563  0.192738333333
 C2 0.726585 0.028502 0.41562  0.192738333333
 C2 0.726592 0.028492 0.91563  0.192738333333
 C2 0.72658 0.528487 0.4156  0.192738333333
 C2 0.726582 0.52849 0.91564  0.192738333333
 C2 0.118876 0.467344 0.43769  0.192738333333
 C2 0.118885 0.467352 0.93769  0.192738333333
 C2 0.118883 0.967354 0.4376  0.192738333333
 C2 0.118879 0.967363 0.93768  0.192738333333
 C2 0.618875 0.467345 0.43769  0.192738333333
 C2 0.618876 0.46735 0.93769  0.192738333333
 C2 0.618878 0.967356 0.43768  0.192738333333
 C2 0.618874 0.967356 0.93768  0.192738333333
 C3 0.044851 0.425494 0.46981  -0.348445416667
 C3 0.044862 0.4255 0.96981  -0.348445416667
 C3 0.044853 0.925507 0.46980  -0.348445416667
 C3 0.044857 0.925511 0.96981  -0.348445416667
 C3 0.544845 0.425498 0.46981  -0.348445416667
 C3 0.544851 0.4255 0.96981  -0.348445416667
 C3 0.544853 0.925505 0.46980  -0.348445416667
 C3 0.544843 0.925511 0.96981  -0.348445416667
 C3 0.290155 0.068292 0.41469  -0.348445416667
 C3 0.290161 0.068293 0.91470  -0.348445416667
 C3 0.290139 0.568283 0.41470  -0.348445416667
 C3 0.29015 0.568289 0.9147  -0.348445416667
 C3 0.790138 0.068304 0.41468  -0.348445416667
 C3 0.790154 0.068287 0.91470  -0.348445416667
 C3 0.790136 0.568285 0.41470  -0.348445416667
 C3 0.790142 0.568285 0.91471  -0.348445416667
 Br1 0.248907 0.048012 0.20146  -0.528396666667
 Br1 0.248922 0.048013 0.70146  -0.528396666667
 Br1 0.248905 0.548007 0.20147  -0.528396666667
 Br1 0.248921 0.548012 0.70147  -0.528396666667
 Br1 0.748902 0.04801 0.20146  -0.528396666667
 Br1 0.748916 0.048012 0.70147  -0.528396666667
 Br1 0.748899 0.54801 0.20147  -0.528396666667
 Br1 0.748909 0.54801 0.70148  -0.528396666667
 Br1 0.498864 0.45163 0.29793  -0.528396666667
 Br1 0.498882 0.45163 0.79793  -0.528396666667
 Br1 0.498878 0.951627 0.29792  -0.528396666667
 Br1 0.498882 0.951631 0.79792  -0.528396666667
 Br1 0.998863 0.451626 0.2979  -0.528396666667
 Br1 0.99887 0.451631 0.79793  -0.528396666667
 Br1 0.998865 0.951633 0.29792  -0.528396666667
 Br1 0.998875 0.95163 0.79792  -0.528396666667
 N1 0.2684 0.375342 0.27274  -0.269856666667
 N1 0.268403 0.375349 0.77275  -0.269856666667
 N1 0.268402 0.875351 0.2727  -0.269856666667
 N1 0.268409 0.87535 0.77275  -0.269856666667
 N1 0.768387 0.375346 0.27274  -0.269856666667
 N1 0.768399 0.375347 0.77275  -0.269856666667
 N1 0.768399 0.875346 0.27274  -0.269856666667
 N1 0.768399 0.87535 0.77275  -0.269856666667
 N2 0.3583 0.387315 0.23603  -0.0805516666667
 N2 0.358308 0.387318 0.73604  -0.0805516666667
 N2 0.358306 0.887321 0.23602  -0.0805516666667
 N2 0.358315 0.887319 0.73604  -0.0805516666667
 N2 0.85829 0.38732 0.23603  -0.0805516666667
 N2 0.8583 0.387318 0.73604  -0.0805516666667
 N2 0.858299 0.887318 0.2360  -0.0805516666667
 N2 0.858302 0.887321 0.73604  -0.0805516666667
 N1 0.416701 0.124212 0.22723  -0.269856666667
 N1 0.416712 0.124218 0.72724  -0.269856666667
 N1 0.416701 0.624214 0.22723  -0.269856666667
 N1 0.416717 0.624215 0.72724  -0.269856666667
 N1 0.91669 0.124216 0.2272  -0.269856666667
 N1 0.916706 0.124217 0.72724  -0.269856666667
 N1 0.916695 0.624212 0.22723  -0.269856666667
 N1 0.916704 0.624215 0.72724  -0.269856666667
 N2 0.481781 0.112282 0.26404  -0.0805516666667
 N2 0.481793 0.112287 0.76405  -0.0805516666667
 N2 0.481778 0.612287 0.2640  -0.0805516666667
 N2 0.481791 0.612286 0.76406  -0.0805516666667
 N2 0.981773 0.112289 0.2640  -0.0805516666667
 N2 0.981784 0.112284 0.7640  -0.0805516666667
 N2 0.981773 0.612284 0.26405  -0.0805516666667
 N2 0.98178 0.612287 0.76406  -0.0805516666667
 N1 0.018348 0.022937 0.12520  -0.269856666667
 N1 0.018353 0.022939 0.62521  -0.269856666667
 N1 0.018341 0.52293 0.12521  -0.269856666667
 N1 0.018344 0.522931 0.62522  -0.269856666667
 N1 0.518336 0.022934 0.12521  -0.269856666667
 N1 0.518344 0.022942 0.62521  -0.269856666667
 N1 0.51833 0.522927 0.1252  -0.269856666667
 N1 0.51834 0.522932 0.62522  -0.269856666667
 N2 0.108194 0.48622 0.13723  -0.0805516666667
 N2 0.108199 0.486226 0.6372  -0.0805516666667
 N2 0.108191 0.986223 0.13722  -0.0805516666667
 N2 0.108203 0.986234 0.6372  -0.0805516666667
 N2 0.608184 0.486219 0.13723  -0.0805516666667
 N2 0.608193 0.486224 0.63723  -0.0805516666667
 N2 0.608182 0.986224 0.13722  -0.0805516666667
 N2 0.608192 0.986236 0.6372  -0.0805516666667
 N1 0.166818 0.477245 0.37407  -0.269856666667
 N1 0.166825 0.477255 0.87407  -0.269856666667
 N1 0.166823 0.977259 0.37405  -0.269856666667
 N1 0.166826 0.977264 0.87406  -0.269856666667
 N1 0.666809 0.477249 0.37406  -0.269856666667
 N1 0.666817 0.477253 0.87407  -0.269856666667
 N1 0.666816 0.97726 0.37405  -0.269856666667
 N1 0.666814 0.977262 0.87406  -0.269856666667
 N2 0.231903 0.014061 0.36216  -0.0805516666667
 N2 0.231905 0.014066 0.86216  -0.0805516666667
 N2 0.231892 0.51405 0.36217  -0.0805516666667
 N2 0.231898 0.514061 0.86217  -0.0805516666667
 N2 0.731892 0.014066 0.3621  -0.0805516666667
 N2 0.731897 0.014061 0.86217  -0.0805516666667
 N2 0.731885 0.514053 0.36216  -0.0805516666667
 N2 0.731892 0.514057 0.86217  -0.0805516666667
