#======================================================================

# CRYSTAL DATA

#----------------------------------------------------------------------

data_VESTA_phase_1


_pd_phase_name                         MOF
_cell_length_a                         19.87200
_cell_length_b                         23.96500
_cell_length_c                         15.36700
_cell_angle_alpha                      95.50000
_cell_angle_beta                       98.16700
_cell_angle_gamma                      113.34200
_symmetry_space_group_name_H-M         "P 1"
_symmetry_Int_Tables_number            1

loop_
_symmetry_equiv_pos_as_xyz
   "x, y, z"

loop_
   _atom_site_label
   _atom_site_fract_x
   _atom_site_fract_y
   _atom_site_fract_z
 _atom_site_charge
 Zn1 0.495247 0.036319 0.79256  0.832331623932
 Zn1 0.495245 0.536296 0.79256  0.832331623932
 Zn1 0.995255 0.036319 0.79256  0.832331623932
 Zn1 0.995253 0.536296 0.79256  0.832331623932
 Zn1 0.226428 0.057561 0.56688  0.832331623932
 Zn1 0.226448 0.557572 0.5668  0.832331623932
 Zn1 0.726436 0.05756 0.56688  0.832331623932
 Zn1 0.726456 0.557572 0.5668  0.832331623932
 Zn2 0.059354 0.407975 0.83279  0.902024957265
 Zn2 0.05931 0.907968 0.83278  0.902024957265
 Zn2 0.559362 0.407974 0.83279  0.902024957265
 Zn2 0.559319 0.907968 0.83278  0.902024957265
 Zn1 0.004787 0.463713 0.20747  0.832331623932
 Zn1 0.004784 0.963689 0.20746  0.832331623932
 Zn1 0.504796 0.463713 0.20747  0.832331623932
 Zn1 0.504793 0.96369 0.20746  0.832331623932
 Zn1 0.273583 0.442438 0.43314  0.832331623932
 Zn1 0.273602 0.94245 0.43314  0.832331623932
 Zn1 0.773591 0.442438 0.43314  0.832331623932
 Zn1 0.773611 0.94245 0.43314  0.832331623932
 Zn2 0.44072 0.092041 0.16724  0.902024957265
 Zn2 0.440677 0.592035 0.16723  0.902024957265
 Zn2 0.940728 0.092041 0.16724  0.902024957265
 Zn2 0.940685 0.592035 0.16723  0.902024957265
 Zn2 0.250013 1.4e-05 0.99999  0.902024957265
 Zn2 0.250014 0.500007 0.99999  0.902024957265
 Zn2 0.750021 1.3e-05 0.99999  0.902024957265
 Zn2 0.750022 0.500007 0.99999  0.902024957265
 H1 0.385656 0.263781 0.94190  0.426821623932
 H1 0.38558 0.763748 0.94196  0.426821623932
 H1 0.885665 0.263781 0.94190  0.426821623932
 H1 0.885589 0.763748 0.94196  0.426821623932
 H1 0.129605 0.3258 0.55730  0.426821623932
 H1 0.129778 0.825968 0.55702  0.426821623932
 H1 0.629612 0.325798 0.55730  0.426821623932
 H1 0.629787 0.825968 0.55701  0.426821623932
 H2 0.330423 0.478809 0.84431  0.103156623932
 H2 0.330427 0.978811 0.84431  0.103156623932
 H2 0.830432 0.478809 0.84431  0.103156623932
 H2 0.830436 0.97881 0.84431  0.103156623932
 H2 0.035062 0.095948 0.0122  0.103156623932
 H2 0.035049 0.595954 0.01227  0.103156623932
 H2 0.53507 0.095948 0.0122  0.103156623932
 H2 0.535057 0.595954 0.01227  0.103156623932
 H2 0.371802 0.094315 0.72612  0.103156623932
 H2 0.371874 0.594345 0.72608  0.103156623932
 H2 0.87181 0.094315 0.72612  0.103156623932
 H2 0.871883 0.594345 0.72608  0.103156623932
 H2 0.404265 0.448477 0.59043  0.103156623932
 H2 0.404337 0.948529 0.59042  0.103156623932
 H2 0.904274 0.448477 0.59043  0.103156623932
 H2 0.904346 0.948529 0.59042  0.103156623932
 H2 0.092543 0.077071 0.64184  0.103156623932
 H2 0.092525 0.577037 0.64181  0.103156623932
 H2 0.592551 0.077071 0.64184  0.103156623932
 H2 0.592533 0.577037 0.64181  0.103156623932
 H2 0.17988 0.448248 0.70073  0.103156623932
 H2 0.179805 0.948197 0.70068  0.103156623932
 H2 0.679889 0.448248 0.7007  0.103156623932
 H2 0.679814 0.948197 0.70068  0.103156623932
 H2 0.091427 0.244674 0.83308  0.103156623932
 H2 0.091377 0.74468 0.83306  0.103156623932
 H2 0.591436 0.244674 0.83308  0.103156623932
 H2 0.591386 0.74468 0.83306  0.103156623932
 H2 0.266595 0.185521 0.90406  0.103156623932
 H2 0.266515 0.685498 0.90407  0.103156623932
 H2 0.766604 0.185521 0.90406  0.103156623932
 H2 0.766523 0.685497 0.90407  0.103156623932
 H2 0.319345 0.379503 0.92425  0.103156623932
 H2 0.319303 0.879486 0.92426  0.103156623932
 H2 0.819353 0.379502 0.92425  0.103156623932
 H2 0.819312 0.879485 0.92426  0.103156623932
 H2 0.357338 0.251059 0.68821  0.103156623932
 H2 0.357247 0.75103 0.68824  0.103156623932
 H2 0.857344 0.251058 0.68822  0.103156623932
 H2 0.857255 0.75103 0.68824  0.103156623932
 H2 0.144117 0.233045 0.5495  0.103156623932
 H2 0.144111 0.733119 0.5494  0.103156623932
 H2 0.644125 0.233044 0.54958  0.103156623932
 H2 0.64412 0.733118 0.5494  0.103156623932
 H2 0.301243 0.407022 0.70816  0.103156623932
 H2 0.301269 0.907056 0.70814  0.103156623932
 H2 0.80125 0.407021 0.70816  0.103156623932
 H2 0.801277 0.907056 0.70814  0.103156623932
 H1 0.114454 0.236262 0.0580  0.426821623932
 H1 0.114375 0.736226 0.0581  0.426821623932
 H1 0.614462 0.236261 0.05805  0.426821623932
 H1 0.614383 0.736226 0.05812  0.426821623932
 H1 0.370251 0.174041 0.44301  0.426821623932
 H1 0.370428 0.674213 0.44272  0.426821623932
 H1 0.87026 0.174041 0.44301  0.426821623932
 H1 0.870436 0.674213 0.44272  0.426821623932
 H2 0.169607 0.021201 0.15571  0.103156623932
 H2 0.169611 0.521202 0.1557  0.103156623932
 H2 0.669615 0.021201 0.1557  0.103156623932
 H2 0.66962 0.521202 0.1557  0.103156623932
 H2 0.464986 0.404054 0.98775  0.103156623932
 H2 0.464973 0.904059 0.98775  0.103156623932
 H2 0.964994 0.404053 0.98775  0.103156623932
 H2 0.964981 0.904059 0.98775  0.103156623932
 H2 0.128156 0.405663 0.27395  0.103156623932
 H2 0.128228 0.905694 0.27391  0.103156623932
 H2 0.628164 0.405663 0.27395  0.103156623932
 H2 0.628237 0.905694 0.27391  0.103156623932
 H2 0.095693 0.05148 0.40960  0.103156623932
 H2 0.095766 0.551533 0.40959  0.103156623932
 H2 0.595702 0.05148 0.40960  0.103156623932
 H2 0.595775 0.551533 0.40959  0.103156623932
 H2 0.407507 0.422973 0.35822  0.103156623932
 H2 0.407489 0.92294 0.35818  0.103156623932
 H2 0.907515 0.422973 0.35822  0.103156623932
 H2 0.907497 0.92294 0.35818  0.103156623932
 H2 0.320224 0.051812 0.2993  0.103156623932
 H2 0.32015 0.551761 0.29929  0.103156623932
 H2 0.820233 0.051812 0.2993  0.103156623932
 H2 0.820159 0.551761 0.29929  0.103156623932
 H2 0.408656 0.255331 0.16697  0.103156623932
 H2 0.408606 0.755338 0.16695  0.103156623932
 H2 0.908665 0.255331 0.16697  0.103156623932
 H2 0.908613 0.755338 0.16695  0.103156623932
 H2 0.233519 0.314513 0.09595  0.103156623932
 H2 0.233436 0.814488 0.09596  0.103156623932
 H2 0.733528 0.314513 0.09595  0.103156623932
 H2 0.733444 0.814488 0.09596  0.103156623932
 H2 0.180731 0.120525 0.07576  0.103156623932
 H2 0.18069 0.620507 0.07577  0.103156623932
 H2 0.68074 0.120525 0.07576  0.103156623932
 H2 0.680698 0.620507 0.07578  0.103156623932
 H2 0.142782 0.248977 0.31179  0.103156623932
 H2 0.142693 0.74895 0.31181  0.103156623932
 H2 0.642791 0.248978 0.31179  0.103156623932
 H2 0.642701 0.74895 0.31181  0.103156623932
 H2 0.355918 0.26689 0.45055  0.103156623932
 H2 0.355914 0.766966 0.45045  0.103156623932
 H2 0.855927 0.26689 0.45055  0.103156623932
 H2 0.855922 0.766966 0.45045  0.103156623932
 H2 0.198762 0.092952 0.29189  0.103156623932
 H2 0.19879 0.592988 0.29186  0.103156623932
 H2 0.698771 0.092952 0.29189  0.103156623932
 H2 0.698798 0.592987 0.29186  0.103156623932
 C1 0.37213 0.009303 0.90085  0.272179957265
 C1 0.372123 0.509294 0.90085  0.272179957265
 C1 0.872138 0.009303 0.90085  0.272179957265
 C1 0.872132 0.509293 0.90085  0.272179957265
 C1 0.475997 0.067852 0.98686  0.272179957265
 C1 0.475986 0.567853 0.98686  0.272179957265
 C1 0.976006 0.067852 0.98686  0.272179957265
 C1 0.975994 0.567853 0.98686  0.272179957265
 C1 0.365981 0.055869 0.67763  0.272179957265
 C1 0.366015 0.555877 0.67760  0.272179957265
 C1 0.865989 0.055869 0.67763  0.272179957265
 C1 0.866024 0.555877 0.67760  0.272179957265
 C1 0.383562 0.482657 0.60886  0.272179957265
 C1 0.383599 0.982684 0.60886  0.272179957265
 C1 0.88357 0.482657 0.60886  0.272179957265
 C1 0.883607 0.982684 0.60886  0.272179957265
 C1 0.10217 0.040466 0.6701  0.272179957265
 C1 0.102176 0.54045 0.67015  0.272179957265
 C1 0.602178 0.040466 0.6701  0.272179957265
 C1 0.602184 0.54045 0.67015  0.272179957265
 C1 0.148423 0.476308 0.70126  0.272179957265
 C1 0.148372 0.976275 0.70123  0.272179957265
 C1 0.648432 0.476308 0.70126  0.272179957265
 C1 0.64838 0.976275 0.70123  0.272179957265
 C2 0.176493 0.367502 0.87066  0.662506623932
 C2 0.176468 0.867506 0.8706  0.662506623932
 C2 0.676499 0.367501 0.87067  0.662506623932
 C2 0.676475 0.867505 0.87065  0.662506623932
 C2 0.117104 0.142438 0.85425  0.662506623932
 C2 0.117039 0.64243 0.85423  0.662506623932
 C2 0.617112 0.142438 0.8542  0.662506623932
 C2 0.617047 0.64243 0.85424  0.662506623932
 C3 0.202699 0.317451 0.87780  -0.0983083760684
 C3 0.202657 0.817446 0.877  -0.0983083760684
 C3 0.702708 0.317451 0.87780  -0.0983083760684
 C3 0.702665 0.817446 0.87779  -0.0983083760684
 C4 0.150223 0.2557 0.85638  -0.136310042735
 C4 0.150171 0.755697 0.85636  -0.136310042735
 C4 0.650231 0.2557 0.85638  -0.136310042735
 C4 0.650179 0.755697 0.85637  -0.136310042735
 C3 0.173396 0.2084 0.86706  -0.0983083760684
 C3 0.173331 0.708393 0.86706  -0.0983083760684
 C3 0.673405 0.2084 0.86706  -0.0983083760684
 C3 0.67334 0.708392 0.86706  -0.0983083760684
 C4 0.249519 0.222887 0.89443  -0.136310042735
 C4 0.249451 0.72287 0.89443  -0.136310042735
 C4 0.749527 0.222887 0.89443  -0.136310042735
 C4 0.749459 0.72287 0.89444  -0.136310042735
 C5 0.301799 0.284227 0.91180  0.297831623932
 C5 0.30174 0.784207 0.91181  0.297831623932
 C5 0.801809 0.284227 0.91179  0.297831623932
 C5 0.801749 0.784206 0.91181  0.297831623932
 C4 0.27861 0.33184 0.90605  -0.136310042735
 C4 0.278563 0.831825 0.90605  -0.136310042735
 C4 0.778618 0.33184 0.90605  -0.136310042735
 C4 0.778571 0.831825 0.90605  -0.136310042735
 C2 0.412291 0.372825 0.76076  0.662506623932
 C2 0.41226 0.872807 0.76077  0.662506623932
 C2 0.912304 0.372829 0.76074  0.662506623932
 C2 0.912269 0.872808 0.76077  0.662506623932
 C2 0.225133 0.168203 0.58456  0.662506623932
 C2 0.225046 0.668214 0.58453  0.662506623932
 C2 0.725145 0.168205 0.58455  0.662506623932
 C2 0.725056 0.668214 0.58453  0.662506623932
 C3 0.337155 0.333198 0.70388  -0.0983083760684
 C3 0.337122 0.833197 0.70389  -0.0983083760684
 C3 0.837162 0.333197 0.7038  -0.0983083760684
 C3 0.83713 0.833197 0.70389  -0.0983083760684
 C4 0.31803 0.271257 0.6709  -0.136310042735
 C4 0.317966 0.771251 0.67095  -0.136310042735
 C4 0.818041 0.271259 0.67094  -0.136310042735
 C4 0.817975 0.771251 0.67095  -0.136310042735
 C3 0.248064 0.235385 0.61660  -0.0983083760684
 C3 0.248009 0.735404 0.61657  -0.0983083760684
 C3 0.74807 0.235384 0.61661  -0.0983083760684
 C3 0.748017 0.735404 0.61657  -0.0983083760684
 C4 0.197941 0.261826 0.59304  -0.136310042735
 C4 0.197926 0.761877 0.59298  -0.136310042735
 C4 0.697951 0.261827 0.59304  -0.136310042735
 C4 0.697935 0.761877 0.59297  -0.136310042735
 C5 0.217752 0.323847 0.62505  0.297831623932
 C5 0.217769 0.823904 0.62498  0.297831623932
 C5 0.717755 0.323844 0.62506  0.297831623932
 C5 0.717776 0.823903 0.62499  0.297831623932
 C4 0.286429 0.359036 0.68186  -0.136310042735
 C4 0.28643 0.859064 0.68184  -0.136310042735
 C4 0.786439 0.359037 0.68186  -0.136310042735
 C4 0.786439 0.859064 0.68184  -0.136310042735
 C1 0.127911 0.490718 0.09917  0.272179957265
 C1 0.127904 0.990708 0.09917  0.272179957265
 C1 0.62792 0.490717 0.09917  0.272179957265
 C1 0.627913 0.990708 0.09917  0.272179957265
 C1 0.024049 0.432156 0.01316  0.272179957265
 C1 0.024037 0.932157 0.01316  0.272179957265
 C1 0.524057 0.432156 0.01316  0.272179957265
 C1 0.524046 0.932157 0.01316  0.272179957265
 C1 0.134015 0.444131 0.3224  0.272179957265
 C1 0.134049 0.94414 0.32240  0.272179957265
 C1 0.634023 0.444131 0.3224  0.272179957265
 C1 0.634057 0.94414 0.32240  0.272179957265
 C1 0.116431 0.017326 0.39117  0.272179957265
 C1 0.11647 0.517353 0.39117  0.272179957265
 C1 0.61644 0.017326 0.39117  0.272179957265
 C1 0.616478 0.517353 0.39117  0.272179957265
 C1 0.397856 0.459561 0.32988  0.272179957265
 C1 0.397862 0.959544 0.32987  0.272179957265
 C1 0.897864 0.459561 0.32988  0.272179957265
 C1 0.89787 0.959544 0.32987  0.272179957265
 C1 0.351658 0.023735 0.29880  0.272179957265
 C1 0.351608 0.523702 0.29876  0.272179957265
 C1 0.851667 0.023735 0.29880  0.272179957265
 C1 0.851616 0.523701 0.29876  0.272179957265
 C2 0.323569 0.132507 0.12937  0.662506623932
 C2 0.323546 0.632511 0.12936  0.662506623932
 C2 0.823576 0.132507 0.12938  0.662506623932
 C2 0.823557 0.632512 0.12934  0.662506623932
 C2 0.382996 0.35758 0.14579  0.662506623932
 C2 0.382929 0.857572 0.14577  0.662506623932
 C2 0.883003 0.35758 0.14579  0.662506623932
 C2 0.882939 0.857571 0.1457  0.662506623932
 C3 0.297377 0.182565 0.12223  -0.0983083760684
 C3 0.297335 0.68256 0.1222  -0.0983083760684
 C3 0.797386 0.182565 0.12223  -0.0983083760684
 C3 0.797343 0.682559 0.12223  -0.0983083760684
 C4 0.349863 0.244314 0.14366  -0.136310042735
 C4 0.34981 0.744311 0.14364  -0.136310042735
 C4 0.849871 0.244314 0.14366  -0.136310042735
 C4 0.84982 0.744311 0.14363  -0.136310042735
 C3 0.326702 0.291619 0.1329  -0.0983083760684
 C3 0.326636 0.79161 0.13297  -0.0983083760684
 C3 0.82671 0.291618 0.13296  -0.0983083760684
 C3 0.826644 0.791611 0.13297  -0.0983083760684
 C4 0.250583 0.277141 0.10559  -0.136310042735
 C4 0.250513 0.777122 0.10559  -0.136310042735
 C4 0.750591 0.277141 0.10559  -0.136310042735
 C4 0.750523 0.777122 0.10558  -0.136310042735
 C5 0.198294 0.215804 0.08821  0.297831623932
 C5 0.198233 0.715782 0.08823  0.297831623932
 C5 0.698303 0.215804 0.08821  0.297831623932
 C5 0.698241 0.715782 0.08824  0.297831623932
 C4 0.221471 0.168186 0.09397  -0.136310042735
 C4 0.221425 0.66817 0.09397  -0.136310042735
 C4 0.721479 0.168185 0.09397  -0.136310042735
 C4 0.721434 0.66817 0.09397  -0.136310042735
 C2 0.087774 0.127203 0.23924  0.662506623932
 C2 0.087737 0.627181 0.23928  0.662506623932
 C2 0.587781 0.127202 0.2392  0.662506623932
 C2 0.587746 0.627181 0.23927  0.662506623932
 C2 0.274987 0.331796 0.4154  0.662506623932
 C2 0.274895 0.831805 0.41547  0.662506623932
 C2 0.774994 0.331796 0.41549  0.662506623932
 C2 0.774904 0.831805 0.41547  0.662506623932
 C3 0.162908 0.166811 0.2961  -0.0983083760684
 C3 0.162877 0.666811 0.29614  -0.0983083760684
 C3 0.662917 0.166811 0.29613  -0.0983083760684
 C3 0.662885 0.666811 0.29614  -0.0983083760684
 C4 0.182067 0.228758 0.3290  -0.136310042735
 C4 0.181998 0.728751 0.32908  -0.136310042735
 C4 0.682074 0.228758 0.32907  -0.136310042735
 C4 0.682008 0.728751 0.32908  -0.136310042735
 C3 0.252019 0.264604 0.38345  -0.0983083760684
 C3 0.251967 0.764625 0.38342  -0.0983083760684
 C3 0.752029 0.264604 0.38345  -0.0983083760684
 C3 0.751976 0.764624 0.38342  -0.0983083760684
 C4 0.302105 0.238133 0.40705  -0.136310042735
 C4 0.302088 0.738183 0.40699  -0.136310042735
 C4 0.802113 0.238132 0.40705  -0.136310042735
 C4 0.802097 0.738183 0.4069  -0.136310042735
 C5 0.282258 0.176104 0.37505  0.297831623932
 C5 0.282283 0.676165 0.37497  0.297831623932
 C5 0.782268 0.176104 0.3750  0.297831623932
 C5 0.782291 0.676164 0.37497  0.297831623932
 C4 0.213602 0.140945 0.31818  -0.136310042735
 C4 0.213602 0.640973 0.31817  -0.136310042735
 C4 0.71361 0.140945 0.31818  -0.136310042735
 C4 0.713611 0.640973 0.3181  -0.136310042735
 N1 0.3557 0.023105 0.97925  -0.259625042735
 N1 0.355689 0.523104 0.97924  -0.259625042735
 N1 0.855708 0.023105 0.97925  -0.259625042735
 N1 0.855698 0.523103 0.97924  -0.259625042735
 N2 0.446282 0.036583 0.90249  -0.426821709402
 N2 0.446275 0.536574 0.90249  -0.426821709402
 N2 0.94629 0.036583 0.90249  -0.426821709402
 N2 0.946284 0.536574 0.90249  -0.426821709402
 N1 0.423189 0.060703 0.03509  -0.259625042735
 N1 0.423175 0.560708 0.03508  -0.259625042735
 N1 0.923198 0.060703 0.03509  -0.259625042735
 N1 0.923183 0.560708 0.03508  -0.259625042735
 N2 0.410333 0.025092 0.68454  -0.426821709402
 N2 0.41033 0.525068 0.68453  -0.426821709402
 N2 0.910341 0.025092 0.68454  -0.426821709402
 N2 0.910338 0.525068 0.68453  -0.426821709402
 N1 0.314084 0.033841 0.60263  -0.259625042735
 N1 0.314107 0.533853 0.60261  -0.259625042735
 N1 0.814092 0.033841 0.60263  -0.259625042735
 N1 0.814115 0.533853 0.60261  -0.259625042735
 N1 0.32577 0.486656 0.55816  -0.259625042735
 N1 0.325793 0.986664 0.55816  -0.259625042735
 N1 0.825778 0.486656 0.55816  -0.259625042735
 N1 0.825801 0.986664 0.55816  -0.259625042735
 N1 0.065971 0.010398 0.72947  -0.259625042735
 N1 0.065992 0.510389 0.72948  -0.259625042735
 N1 0.56598 0.010398 0.72947  -0.259625042735
 N1 0.566 0.510388 0.72948  -0.259625042735
 N1 0.096086 0.469365 0.75012  -0.259625042735
 N1 0.096035 0.969338 0.75009  -0.259625042735
 N1 0.596094 0.469365 0.7501  -0.259625042735
 N1 0.596044 0.969338 0.75009  -0.259625042735
 N2 0.154302 0.020537 0.65023  -0.426821709402
 N2 0.154327 0.520538 0.65024  -0.426821709402
 N2 0.65431 0.020537 0.65023  -0.426821709402
 N2 0.654335 0.520538 0.65024  -0.426821709402
 N1 0.144345 0.47691 0.02078  -0.259625042735
 N1 0.144334 0.976908 0.02077  -0.259625042735
 N1 0.644353 0.476909 0.02078  -0.259625042735
 N1 0.644342 0.976908 0.02077  -0.259625042735
 N2 0.05376 0.463434 0.09753  -0.426821709402
 N2 0.053753 0.963426 0.09753  -0.426821709402
 N2 0.553768 0.463434 0.09753  -0.426821709402
 N2 0.553761 0.963425 0.09753  -0.426821709402
 N1 0.076859 0.439304 0.96494  -0.259625042735
 N1 0.076844 0.939309 0.96493  -0.259625042735
 N1 0.576868 0.439303 0.96494  -0.259625042735
 N1 0.576853 0.939308 0.96493  -0.259625042735
 N2 0.089701 0.47494 0.31550  -0.426821709402
 N2 0.089697 0.974916 0.31548  -0.426821709402
 N2 0.589709 0.47494 0.31550  -0.426821709402
 N2 0.589706 0.974916 0.31548  -0.426821709402
 N1 0.185924 0.466157 0.39741  -0.259625042735
 N1 0.185947 0.966169 0.39740  -0.259625042735
 N1 0.685933 0.466156 0.39741  -0.259625042735
 N1 0.685955 0.966168 0.39740  -0.259625042735
 N1 0.174238 0.013346 0.44186  -0.259625042735
 N1 0.174262 0.513354 0.44186  -0.259625042735
 N1 0.674246 0.013346 0.44186  -0.259625042735
 N1 0.67427 0.513353 0.44186  -0.259625042735
 N1 0.43404 0.489622 0.2705  -0.259625042735
 N1 0.43406 0.989612 0.27055  -0.259625042735
 N1 0.934048 0.489622 0.2705  -0.259625042735
 N1 0.934069 0.989612 0.27055  -0.259625042735
 N1 0.403995 0.030671 0.24993  -0.259625042735
 N1 0.403945 0.530645 0.24990  -0.259625042735
 N1 0.904003 0.030671 0.24993  -0.259625042735
 N1 0.903954 0.530645 0.24990  -0.259625042735
 N2 0.345704 0.479472 0.34979  -0.426821709402
 N2 0.345729 0.979473 0.34979  -0.426821709402
 N2 0.845713 0.479472 0.34979  -0.426821709402
 N2 0.845737 0.979473 0.34979  -0.426821709402
 O1 0.22152 0.423506 0.90393  -0.610170376068
 O1 0.221503 0.923507 0.90393  -0.610170376068
 O1 0.721529 0.423507 0.9039  -0.610170376068
 O1 0.721512 0.923507 0.9039  -0.610170376068
 O1 0.109643 0.351308 0.8294  -0.610170376068
 O1 0.109618 0.851318 0.82942  -0.610170376068
 O1 0.609652 0.351308 0.82942  -0.610170376068
 O1 0.609628 0.851319 0.82942  -0.610170376068
 O1 0.053025 0.128976 0.80300  -0.610170376068
 O1 0.052965 0.628964 0.80297  -0.610170376068
 O1 0.553034 0.128976 0.80300  -0.610170376068
 O1 0.552975 0.628964 0.80297  -0.610170376068
 O2 0.133028 0.103972 0.89247  -0.614195042735
 O2 0.132959 0.603962 0.89246  -0.614195042735
 O2 0.633037 0.10397 0.89247  -0.614195042735
 O2 0.632968 0.603962 0.89246  -0.614195042735
 O3 0.377225 0.300832 0.93737  -0.522623376068
 O3 0.377162 0.800801 0.93739  -0.522623376068
 O3 0.877234 0.300832 0.93737  -0.522623376068
 O3 0.877171 0.800801 0.93739  -0.522623376068
 O2 0.427701 0.428081 0.79250  -0.614195042735
 O2 0.427697 0.928071 0.79250  -0.614195042735
 O2 0.927708 0.42808 0.7925  -0.614195042735
 O2 0.927705 0.928071 0.79250  -0.614195042735
 O1 0.458599 0.347604 0.77367  -0.610170376068
 O1 0.458553 0.847573 0.77369  -0.610170376068
 O1 0.958606 0.347604 0.77367  -0.610170376068
 O1 0.958561 0.847573 0.77369  -0.610170376068
 O1 0.276423 0.147609 0.60309  -0.610170376068
 O1 0.276327 0.64761 0.60307  -0.610170376068
 O1 0.776432 0.147609 0.60309  -0.610170376068
 O1 0.776336 0.64761 0.60307  -0.610170376068
 O2 0.159751 0.134047 0.54421  -0.614195042735
 O2 0.159664 0.634077 0.54418  -0.614195042735
 O2 0.659759 0.134047 0.54422  -0.614195042735
 O2 0.659672 0.634077 0.54418  -0.614195042735
 O3 0.172102 0.353328 0.60340  -0.522623376068
 O3 0.172159 0.853418 0.60331  -0.522623376068
 O3 0.672111 0.353328 0.60339  -0.522623376068
 O3 0.672168 0.853418 0.60331  -0.522623376068
 O1 0.278532 0.076505 0.09610  -0.610170376068
 O1 0.278517 0.576505 0.09610  -0.610170376068
 O1 0.778541 0.076505 0.09610  -0.610170376068
 O1 0.778524 0.576503 0.0961  -0.610170376068
 O1 0.390416 0.148694 0.17061  -0.610170376068
 O1 0.390393 0.648705 0.17060  -0.610170376068
 O1 0.890425 0.148694 0.17061  -0.610170376068
 O1 0.8904 0.648704 0.1706  -0.610170376068
 O1 0.447066 0.371046 0.19706  -0.610170376068
 O1 0.447005 0.871034 0.19703  -0.610170376068
 O1 0.947075 0.371046 0.19706  -0.610170376068
 O1 0.947012 0.871033 0.19703  -0.610170376068
 O2 0.367077 0.396048 0.10757  -0.614195042735
 O2 0.367004 0.896039 0.10756  -0.614195042735
 O2 0.867085 0.396048 0.10757  -0.614195042735
 O2 0.867012 0.89604 0.10756  -0.614195042735
 O3 0.122872 0.199209 0.06263  -0.522623376068
 O3 0.122808 0.699176 0.06265  -0.522623376068
 O3 0.62288 0.199208 0.06263  -0.522623376068
 O3 0.622816 0.699176 0.06265  -0.522623376068
 O2 0.072331 0.071934 0.20753  -0.614195042735
 O2 0.07233 0.571927 0.20752  -0.614195042735
 O2 0.57234 0.071935 0.20753  -0.614195042735
 O2 0.572338 0.571926 0.2075  -0.614195042735
 O1 0.041478 0.152435 0.22633  -0.610170376068
 O1 0.041434 0.652405 0.22635  -0.610170376068
 O1 0.541487 0.152435 0.22633  -0.610170376068
 O1 0.541443 0.652405 0.22635  -0.610170376068
 O1 0.223704 0.3524 0.39695  -0.610170376068
 O1 0.223607 0.852401 0.39694  -0.610170376068
 O1 0.723713 0.352399 0.39695  -0.610170376068
 O1 0.723616 0.852401 0.39694  -0.610170376068
 O2 0.340367 0.365931 0.45585  -0.614195042735
 O2 0.34028 0.865962 0.45581  -0.614195042735
 O2 0.840376 0.365931 0.45585  -0.614195042735
 O2 0.840289 0.865961 0.45581  -0.614195042735
 O3 0.327873 0.146593 0.39672  -0.522623376068
 O3 0.32793 0.646683 0.39663  -0.522623376068
 O3 0.827881 0.146592 0.39672  -0.522623376068
 O3 0.827939 0.646683 0.39663  -0.522623376068
