#======================================================================

# CRYSTAL DATA

#----------------------------------------------------------------------

data_VESTA_phase_1


_pd_phase_name                         MOF
_cell_length_a                         12.62600
_cell_length_b                         14.24800
_cell_length_c                         14.05000
_cell_angle_alpha                      98.35300
_cell_angle_beta                       102.98200
_cell_angle_gamma                      76.55100
_symmetry_space_group_name_H-M         "P 1"
_symmetry_Int_Tables_number            1

loop_
_symmetry_equiv_pos_as_xyz
   "x, y, z"

loop_
   _atom_site_label
   _atom_site_fract_x
   _atom_site_fract_y
   _atom_site_fract_z
 _atom_site_charge
 Zn1 0.101214 0.238636 0.85071  0.872981941176
 Zn1 0.394516 0.835425 0.22972  0.872981941176
 Zn1 0.898797 0.761368 0.14927  0.872981941176
 Zn1 0.605502 0.164572 0.77025  0.872981941176
 H1 0.026703 0.339467 0.1757  0.104565607843
 H1 0.933134 0.319404 0.30913  0.104565607843
 H1 0.670076 0.226654 0.08985  0.104565607843
 H1 0.878583 0.373451 0.81257  0.104565607843
 H1 0.766865 0.481652 0.68611  0.104565607843
 H1 0.007375 0.355055 0.50376  0.104565607843
 H1 0.113315 0.253748 0.64114  0.104565607843
 H1 0.869957 0.497454 0.45589  0.104565607843
 H1 0.803329 0.571421 0.54668  0.104565607843
 H1 0.35189 0.191008 0.89678  0.104565607843
 H1 0.503288 0.280872 0.92799  0.104565607843
 H1 0.255249 0.546591 0.94103  0.104565607843
 H1 0.113521 0.445902 0.91780  0.104565607843
 H1 0.447541 0.543723 0.90235  0.104565607843
 H1 0.552682 0.436894 0.91716  0.104565607843
 H1 0.47416 0.144257 0.35260  0.104565607843
 H1 0.561359 0.281831 0.3402  0.104565607843
 H1 0.825472 0.078279 0.22800  0.104565607843
 H1 0.633564 0.772494 0.31348  0.104565607843
 H1 0.760358 0.639183 0.40046  0.104565607843
 H1 0.48157 0.501754 0.36868  0.104565607843
 H1 0.364608 0.641105 0.27664  0.104565607843
 H1 0.71731 0.410014 0.40202  0.104565607843
 H1 0.657826 0.461502 0.50406  0.104565607843
 H1 0.145249 0.873518 0.18683  0.104565607843
 H1 0.994751 0.91271 0.28070  0.104565607843
 H1 0.243456 0.940364 0.5449  0.104565607843
 H1 0.384687 0.907562 0.43917  0.104565607843
 H1 0.050288 0.905885 0.54916  0.104565607843
 H1 0.944971 0.917993 0.44152  0.104565607843
 H1 0.97329 0.660559 0.82420  0.104565607843
 H1 0.066855 0.680624 0.69084  0.104565607843
 H1 0.329932 0.773347 0.91012  0.104565607843
 H1 0.121424 0.626561 0.18741  0.104565607843
 H1 0.233173 0.518406 0.31390  0.104565607843
 H1 0.992709 0.645075 0.49627  0.104565607843
 H1 0.886734 0.746329 0.35887  0.104565607843
 H1 0.130133 0.502715 0.54419  0.104565607843
 H1 0.196657 0.428674 0.45338  0.104565607843
 H1 0.648118 0.808994 0.10320  0.104565607843
 H1 0.496721 0.71913 0.07197  0.104565607843
 H1 0.744764 0.453411 0.05896  0.104565607843
 H1 0.886493 0.554099 0.08219  0.104565607843
 H1 0.552469 0.456278 0.0976  0.104565607843
 H1 0.447328 0.563107 0.08282  0.104565607843
 H1 0.525821 0.855758 0.64734  0.104565607843
 H1 0.438624 0.718185 0.65967  0.104565607843
 H1 0.17452 0.921741 0.77196  0.104565607843
 H1 0.366439 0.227583 0.68653  0.104565607843
 H1 0.23968 0.360923 0.59957  0.104565607843
 H1 0.518564 0.498203 0.6312  0.104565607843
 H1 0.635481 0.358842 0.72327  0.104565607843
 H1 0.282873 0.590044 0.59795  0.104565607843
 H1 0.34227 0.53849 0.49587  0.104565607843
 H1 0.854767 0.126493 0.81312  0.104565607843
 H1 0.0 0.087338 0.71923  0.104565607843
 H1 0.756529 0.059706 0.45497  0.104565607843
 H1 0.615313 0.092469 0.56078  0.104565607843
 H1 0.949693 0.09419 0.45078  0.104565607843
 H1 0.055014 0.082083 0.55841  0.104565607843
 C1 0.799425 0.263961 0.0345  0.0545713161765
 C1 0.901714 0.294019 0.05870  0.0545713161765
 C2 0.948412 0.314805 0.15762  -0.202050558824
 C2 0.896725 0.304032 0.23200  -0.202050558824
 C3 0.796937 0.271683 0.20727  0.267506941176
 C2 0.748146 0.251594 0.1092  -0.202050558824
 C4 0.738413 0.253782 0.92948  0.653451941176
 C4 0.965701 0.303065 0.9832  0.653451941176
 C5 0.904629 0.372045 0.74342  0.194468191176
 C2 0.842348 0.431357 0.6716  -0.202050558824
 C1 0.878323 0.428646 0.58368  0.0545713161765
 C2 0.976071 0.361919 0.57131  -0.202050558824
 C5 0.035375 0.305279 0.64627  0.194468191176
 C6 0.816989 0.497689 0.50836  -0.160885558824
 C5 0.333411 0.269867 0.90821  0.194468191176
 C2 0.418028 0.321129 0.92497  -0.202050558824
 C1 0.392348 0.422687 0.93386  0.0545713161765
 C2 0.280788 0.467926 0.9317  -0.202050558824
 C5 0.200325 0.412557 0.91702  0.194468191176
 C6 0.480644 0.481112 0.94578  -0.160885558824
 C1 0.700727 0.01614 0.26373  0.0545713161765
 C1 0.600007 0.034561 0.29729  0.0545713161765
 C2 0.551035 0.130417 0.32506  -0.202050558824
 C2 0.599168 0.207218 0.31841  -0.202050558824
 C3 0.697589 0.188349 0.28296  0.267506941176
 C2 0.748419 0.093429 0.25533  -0.202050558824
 C4 0.763796 0.913762 0.24638  0.653451941176
 C4 0.53896 0.956835 0.30275  0.653451941176
 C5 0.602375 0.711336 0.32667  0.194468191176
 C2 0.673132 0.635749 0.37624  -0.202050558824
 C1 0.632091 0.558505 0.39482  0.0545713161765
 C2 0.5186 0.560504 0.35806  -0.202050558824
 C5 0.4525 0.637518 0.3080  0.194468191176
 C6 0.704065 0.47685 0.45226  -0.160885558824
 C5 0.164132 0.889796 0.26620  0.194468191176
 C2 0.080081 0.910794 0.31984  -0.202050558824
 C1 0.106189 0.926884 0.42231  0.0545713161765
 C2 0.217695 0.926068 0.46585  -0.202050558824
 C5 0.29765 0.90654 0.40806  0.194468191176
 C6 0.0181 0.94549 0.48341  -0.160885558824
 C1 0.200583 0.73604 0.96544  0.0545713161765
 C1 0.09829 0.705989 0.94127  0.0545713161765
 C2 0.051584 0.685214 0.84236  -0.202050558824
 C2 0.103267 0.695992 0.76797  -0.202050558824
 C3 0.203061 0.728331 0.79271  0.267506941176
 C2 0.251857 0.748415 0.89076  -0.202050558824
 C4 0.261604 0.746212 0.07049  0.653451941176
 C4 0.034305 0.696938 0.01675  0.653451941176
 C5 0.095395 0.627992 0.25658  0.194468191176
 C2 0.157693 0.568706 0.32839  -0.202050558824
 C1 0.121738 0.571447 0.41634  0.0545713161765
 C2 0.023996 0.638184 0.42872  -0.202050558824
 C5 0.964673 0.694796 0.35374  0.194468191176
 C6 0.183073 0.502418 0.4916  -0.160885558824
 C5 0.666599 0.730135 0.09177  0.194468191176
 C2 0.581982 0.678872 0.07500  -0.202050558824
 C1 0.607663 0.577314 0.06612  0.0545713161765
 C2 0.719225 0.532076 0.06828  -0.202050558824
 C5 0.799688 0.587445 0.08297  0.194468191176
 C6 0.519366 0.518889 0.05419  -0.160885558824
 C1 0.299261 0.983877 0.73622  0.0545713161765
 C1 0.399984 0.965456 0.70266  0.0545713161765
 C2 0.448947 0.8696 0.67489  -0.202050558824
 C2 0.400823 0.792798 0.68155  -0.202050558824
 C3 0.302405 0.811666 0.71700  0.267506941176
 C2 0.251576 0.906587 0.74464  -0.202050558824
 C4 0.236196 0.086257 0.75357  0.653451941176
 C4 0.46105 0.043172 0.69721  0.653451941176
 C5 0.397654 0.288718 0.67333  0.194468191176
 C2 0.326919 0.364319 0.62376  -0.202050558824
 C1 0.367998 0.441528 0.60515  0.0545713161765
 C2 0.481503 0.439483 0.64188  -0.202050558824
 C5 0.547579 0.36246 0.69190  0.194468191176
 C6 0.296047 0.523195 0.54771  -0.160885558824
 C5 0.835877 0.110229 0.73374  0.194468191176
 C2 0.91992 0.089253 0.68010  -0.202050558824
 C1 0.893802 0.073179 0.5776  0.0545713161765
 C2 0.782296 0.07399 0.53409  -0.202050558824
 C5 0.70235 0.093497 0.59189  0.194468191176
 C6 0.981886 0.054583 0.5165  -0.160885558824
 N1 0.001301 0.310923 0.73183  -0.358303058824
 N1 0.22551 0.314411 0.90270  -0.358303058824
 N1 0.49323 0.712863 0.29338  -0.358303058824
 N1 0.271939 0.88647 0.30931  -0.358303058824
 N1 0.998725 0.689117 0.26817  -0.358303058824
 N1 0.774501 0.685591 0.0972  -0.358303058824
 N1 0.506812 0.287149 0.70658  -0.358303058824
 N1 0.728069 0.113548 0.69064  -0.358303058824
 O1 0.677985 0.188474 0.90925  -0.615118058824
 O2 0.745607 0.30879 0.87053  -0.588918058824
 O1 0.996753 0.222976 0.92979  -0.615118058824
 O2 0.99007 0.38215 0.97954  -0.588918058824
 O1 0.827453 0.898947 0.18263  -0.615118058824
 O2 0.754869 0.850362 0.29557  -0.588918058824
 O1 0.500091 0.913903 0.21797  -0.615118058824
 O2 0.523009 0.942733 0.38325  -0.588918058824
 O1 0.32203 0.811521 0.09072  -0.615118058824
 O2 0.254409 0.691208 0.12945  -0.588918058824
 O1 0.003249 0.777026 0.07018  -0.615118058824
 O2 0.0 0.617847 0.02045  -0.588918058824
 O1 0.17255 0.101067 0.81734  -0.615118058824
 O2 0.245154 0.149673 0.70443  -0.588918058824
 O1 0.499917 0.086103 0.78199  -0.615118058824
 O2 0.477003 0.057276 0.61672  -0.588918058824
 O3 0.745428 0.26742 0.28397  -0.302463058824
 O3 0.254576 0.732591 0.71601  -0.302463058824
