#======================================================================

# CRYSTAL DATA

#----------------------------------------------------------------------

data_VESTA_phase_1


_pd_phase_name                         MOF
_cell_length_a                         17.51300
_cell_length_b                         17.50300
_cell_length_c                         14.77900
_cell_angle_alpha                      91.57800
_cell_angle_beta                       91.56800
_cell_angle_gamma                      90.54300
_symmetry_space_group_name_H-M         "P 1"
_symmetry_Int_Tables_number            1

loop_
_symmetry_equiv_pos_as_xyz
   "x, y, z"

loop_
   _atom_site_label
   _atom_site_fract_x
   _atom_site_fract_y
   _atom_site_fract_z
 _atom_site_charge
 Cd1 0.244796 0.255249 0.75009  0.448440833333
 Cd1 0.244799 0.755261 0.75009  0.448440833333
 Cd1 0.744785 0.255249 0.75009  0.448440833333
 Cd1 0.744787 0.75526 0.75009  0.448440833333
 Cd1 0.255189 0.244769 0.24988  0.448440833333
 Cd1 0.255191 0.74478 0.24988  0.448440833333
 Cd1 0.755178 0.244769 0.24988  0.448440833333
 Cd1 0.75518 0.74478 0.24988  0.448440833333
 Cd2 1e-06 0.250006 0.  0.987000833333
 Cd2 4e-06 0.750017 0.  0.987000833333
 Cd2 0.49999 0.250006 0.  0.987000833333
 Cd2 0.499993 0.750017 0.  0.987000833333
 Cd2 0.249991 4e-06 0.4999  0.987000833333
 Cd2 0.249994 0.500015 0.4999  0.987000833333
 Cd2 0.74998 3e-06 0.4999  0.987000833333
 Cd2 0.749982 0.500015 0.4999  0.987000833333
 H1 0.043438 0.097768 0.93660  0.336601666667
 H1 0.04344 0.59778 0.93660  0.336601666667
 H1 0.543426 0.097768 0.93660  0.336601666667
 H1 0.543429 0.59778 0.93660  0.336601666667
 H1 0.448611 0.09789 0.93807  0.336601666667
 H1 0.448614 0.597902 0.93807  0.336601666667
 H1 0.9486 0.09789 0.93807  0.336601666667
 H1 0.948603 0.597901 0.93807  0.336601666667
 H1 0.499122 0.083896 0.03292  0.336601666667
 H1 0.499124 0.583907 0.03292  0.336601666667
 H1 0.99911 0.083896 0.03292  0.336601666667
 H1 0.999113 0.583907 0.03292  0.336601666667
 H1 0.402144 0.456556 0.56327  0.336601666667
 H1 0.402147 0.956567 0.56327  0.336601666667
 H1 0.902133 0.456556 0.56327  0.336601666667
 H1 0.902136 0.956567 0.56327  0.336601666667
 H1 0.402011 0.051415 0.56183  0.336601666667
 H1 0.402013 0.551426 0.56183  0.336601666667
 H1 0.901999 0.051415 0.56183  0.336601666667
 H1 0.902002 0.551426 0.56183  0.336601666667
 H1 0.415971 0.000888 0.46697  0.336601666667
 H1 0.415973 0.5009 0.46697  0.336601666667
 H1 0.91596 0.000889 0.46697  0.336601666667
 H1 0.915962 0.5009 0.46697  0.336601666667
 H1 0.456548 0.40225 0.06337  0.336601666667
 H1 0.45655 0.902261 0.06337  0.336601666667
 H1 0.956536 0.40225 0.06337  0.336601666667
 H1 0.956539 0.902261 0.06337  0.336601666667
 H1 0.051373 0.402128 0.06190  0.336601666667
 H1 0.051376 0.902139 0.06190  0.336601666667
 H1 0.551362 0.402128 0.06190  0.336601666667
 H1 0.551365 0.902139 0.06190  0.336601666667
 H1 0.000864 0.416122 0.96705  0.336601666667
 H1 0.000866 0.916133 0.96705  0.336601666667
 H1 0.500852 0.416122 0.96705  0.336601666667
 H1 0.500855 0.916134 0.96705  0.336601666667
 H1 0.097841 0.043463 0.43670  0.336601666667
 H1 0.097843 0.543474 0.43670  0.336601666667
 H1 0.597829 0.043463 0.43670  0.336601666667
 H1 0.597832 0.543474 0.43670  0.336601666667
 H1 0.097974 0.448603 0.43814  0.336601666667
 H1 0.097977 0.948615 0.43814  0.336601666667
 H1 0.597963 0.448603 0.43814  0.336601666667
 H1 0.597966 0.948615 0.43814  0.336601666667
 H1 0.084014 0.49913 0.53300  0.336601666667
 H1 0.084016 0.999141 0.53300  0.336601666667
 H1 0.584003 0.49913 0.53300  0.336601666667
 H1 0.584005 0.999141 0.53300  0.336601666667
 C1 0.145458 0.257202 0.84109  -0.0510004166667
 C1 0.14546 0.757214 0.84109  -0.0510004166667
 C1 0.645446 0.257202 0.84109  -0.0510004166667
 C1 0.645449 0.757214 0.84109  -0.0510004166667
 C1 0.24193 0.149356 0.66256  -0.0510004166667
 C1 0.241932 0.649367 0.66256  -0.0510004166667
 C1 0.741919 0.149356 0.66256  -0.0510004166667
 C1 0.741921 0.649367 0.66256  -0.0510004166667
 C1 0.242827 0.354605 0.65904  -0.0510004166667
 C1 0.242829 0.854616 0.65904  -0.0510004166667
 C1 0.742816 0.354605 0.65904  -0.0510004166667
 C1 0.742818 0.854616 0.65904  -0.0510004166667
 C1 0.350663 0.258114 0.83753  -0.0510004166667
 C1 0.350665 0.758125 0.83753  -0.0510004166667
 C1 0.850652 0.258114 0.83753  -0.0510004166667
 C1 0.850654 0.758125 0.83753  -0.0510004166667
 C1 0.354527 0.242816 0.15888  -0.0510004166667
 C1 0.35453 0.742827 0.15888  -0.0510004166667
 C1 0.854516 0.242816 0.15888  -0.0510004166667
 C1 0.854518 0.742827 0.15888  -0.0510004166667
 C1 0.258055 0.350662 0.33741  -0.0510004166667
 C1 0.258057 0.850673 0.33741  -0.0510004166667
 C1 0.758044 0.350662 0.33741  -0.0510004166667
 C1 0.758046 0.850673 0.33741  -0.0510004166667
 C1 0.257158 0.145414 0.34093  -0.0510004166667
 C1 0.25716 0.645425 0.34093  -0.0510004166667
 C1 0.757147 0.145414 0.34093  -0.0510004166667
 C1 0.757149 0.645425 0.34093  -0.0510004166667
 C1 0.149322 0.241904 0.16244  -0.0510004166667
 C1 0.149325 0.741916 0.16244  -0.0510004166667
 C1 0.649311 0.241904 0.16244  -0.0510004166667
 C1 0.649313 0.741916 0.16244  -0.0510004166667
 N1 0.094811 0.257869 0.89126  -0.375422916667
 N1 0.094814 0.75788 0.89126  -0.375422916667
 N1 0.5948 0.257869 0.89126  -0.375422916667
 N1 0.594802 0.75788 0.89126  -0.375422916667
 N1 0.095578 0.240818 0.11343  -0.375422916667
 N1 0.095581 0.74083 0.11343  -0.375422916667
 N1 0.595567 0.240818 0.11343  -0.375422916667
 N1 0.595569 0.740829 0.11343  -0.375422916667
 N2 0.497428 0.113403 0.97402  -0.874679166667
 N2 0.49743 0.613414 0.97402  -0.874679166667
 N2 0.997417 0.113403 0.97402  -0.874679166667
 N2 0.997419 0.613414 0.97402  -0.874679166667
 N1 0.242169 0.405208 0.60878  -0.375422916667
 N1 0.242171 0.905219 0.60878  -0.375422916667
 N1 0.742158 0.405208 0.60878  -0.375422916667
 N1 0.74216 0.905219 0.60878  -0.375422916667
 N1 0.25917 0.404377 0.3865  -0.375422916667
 N1 0.259173 0.904389 0.3865  -0.375422916667
 N1 0.759159 0.404377 0.3865  -0.375422916667
 N1 0.759162 0.904389 0.3865  -0.375422916667
 N2 0.386506 0.002571 0.52587  -0.874679166667
 N2 0.386509 0.502582 0.52587  -0.874679166667
 N2 0.886495 0.002571 0.52587  -0.874679166667
 N2 0.886497 0.502582 0.52587  -0.874679166667
 N1 0.405174 0.24215 0.10871  -0.375422916667
 N1 0.405176 0.742161 0.10871  -0.375422916667
 N1 0.905162 0.242149 0.10871  -0.375422916667
 N1 0.905165 0.742161 0.10871  -0.375422916667
 N1 0.404407 0.2592 0.88654  -0.375422916667
 N1 0.404409 0.759211 0.88654  -0.375422916667
 N1 0.904396 0.2592 0.88654  -0.375422916667
 N1 0.904398 0.759211 0.88654  -0.375422916667
 N2 0.002557 0.386616 0.02595  -0.874679166667
 N2 0.00256 0.886627 0.02595  -0.874679166667
 N2 0.502546 0.386616 0.02595  -0.874679166667
 N2 0.502548 0.886627 0.02595  -0.874679166667
 N1 0.257816 0.094811 0.39119  -0.375422916667
 N1 0.257818 0.594822 0.39119  -0.375422916667
 N1 0.757805 0.094811 0.39119  -0.375422916667
 N1 0.757807 0.594822 0.39119  -0.375422916667
 N1 0.240815 0.095641 0.6134  -0.375422916667
 N1 0.240817 0.595652 0.6134  -0.375422916667
 N1 0.740803 0.095641 0.6134  -0.375422916667
 N1 0.740806 0.595652 0.6134  -0.375422916667
 N2 0.113479 0.497448 0.47410  -0.874679166667
 N2 0.113481 0.997459 0.47410  -0.874679166667
 N2 0.613468 0.497448 0.47410  -0.874679166667
 N2 0.61347 0.997459 0.47410  -0.874679166667
