#======================================================================

# CRYSTAL DATA

#----------------------------------------------------------------------

data_VESTA_phase_1


_pd_phase_name                         MOF
_cell_length_a                         13.51400
_cell_length_b                         18.16700
_cell_length_c                         19.30100
_cell_angle_alpha                      90.12600
_cell_angle_beta                       96.26900
_cell_angle_gamma                      90.07000
_symmetry_space_group_name_H-M         "P 1"
_symmetry_Int_Tables_number            1

loop_
_symmetry_equiv_pos_as_xyz
   "x, y, z"

loop_
   _atom_site_label
   _atom_site_fract_x
   _atom_site_fract_y
   _atom_site_fract_z
 _atom_site_charge
 Zn1 0.096009 0.515352 0.77760  0.887950765306
 Zn1 0.59597 0.515425 0.77725  0.887950765306
 Zn1 0.154063 0.015441 0.72267  0.887950765306
 Zn1 0.654043 0.015396 0.72252  0.887950765306
 Zn1 0.404021 0.484553 0.22277  0.887950765306
 Zn1 0.903984 0.484627 0.22241  0.887950765306
 Zn1 0.345952 0.984584 0.2775  0.887950765306
 Zn1 0.845926 0.984533 0.27731  0.887950765306
 H1 0.012343 0.799923 0.59281  0.106091640306
 H1 0.512994 0.799686 0.59200  0.106091640306
 H1 0.116726 0.760574 0.50113  0.106091640306
 H1 0.617875 0.760201 0.50067  0.106091640306
 H1 0.285694 0.70762 0.5357  0.106091640306
 H1 0.786769 0.707327 0.5357  0.106091640306
 H1 0.343006 0.688476 0.66097  0.106091640306
 H1 0.843508 0.688421 0.66111  0.106091640306
 H1 0.327231 0.707129 0.77912  0.106091640306
 H1 0.827163 0.707321 0.77915  0.106091640306
 H1 0.23471 0.765247 0.80786  0.106091640306
 H1 0.734322 0.765337 0.80759  0.106091640306
 H1 0.058609 0.760352 0.77913  0.106091640306
 H1 0.558375 0.760451 0.77842  0.106091640306
 H1 0.475889 0.796974 0.70906  0.106091640306
 H1 0.975822 0.797027 0.71001  0.106091640306
 H1 0.379808 0.471497 0.74194  0.106091640306
 H1 0.879979 0.471299 0.74214  0.106091640306
 H1 0.251191 0.475375 0.64183  0.106091640306
 H1 0.75141 0.475162 0.64197  0.106091640306
 H1 0.461631 0.593215 0.52872  0.106091640306
 H1 0.961908 0.593048 0.52896  0.106091640306
 H1 0.083428 0.584808 0.63632  0.106091640306
 H1 0.583195 0.584962 0.63605  0.106091640306
 H1 0.299379 0.568036 0.47016  0.106091640306
 H1 0.799617 0.567835 0.47036  0.106091640306
 H1 0.204969 0.571066 0.52655  0.106091640306
 H1 0.705215 0.570847 0.52675  0.106091640306
 H1 0.016307 0.398166 0.86328  0.106091640306
 H1 0.516654 0.398012 0.86294  0.106091640306
 H1 0.402347 0.386002 0.95563  0.106091640306
 H1 0.90191 0.386289 0.95594  0.106091640306
 H1 0.363096 0.621602 0.94653  0.106091640306
 H1 0.863031 0.62192 0.94676  0.106091640306
 H1 0.482896 0.624764 0.85680  0.106091640306
 H1 0.982765 0.624926 0.85699  0.106091640306
 H1 0.318193 0.547479 0.05071  0.106091640306
 H1 0.817945 0.547863 0.05097  0.106091640306
 H1 0.320166 0.450077 0.04771  0.106091640306
 H1 0.819884 0.450457 0.04798  0.106091640306
 H1 0.239561 0.300132 0.90768  0.106091640306
 H1 0.738472 0.300553 0.90660  0.106091640306
 H1 0.135983 0.260596 0.99965  0.106091640306
 H1 0.634678 0.261211 0.99851  0.106091640306
 H1 0.465482 0.207956 0.96423  0.106091640306
 H1 0.966575 0.207645 0.96544  0.106091640306
 H1 0.407416 0.188523 0.83908  0.106091640306
 H1 0.908192 0.188517 0.840  0.106091640306
 H1 0.422682 0.206644 0.72088  0.106091640306
 H1 0.923208 0.206895 0.72209  0.106091640306
 H1 0.015557 0.265116 0.69317  0.106091640306
 H1 0.51486 0.265028 0.69198  0.106091640306
 H1 0.191837 0.26059 0.72130  0.106091640306
 H1 0.691191 0.260343 0.72026  0.106091640306
 H1 0.274962 0.297613 0.79028  0.106091640306
 H1 0.774276 0.297433 0.7892  0.106091640306
 H1 0.369971 0.971418 0.75784  0.106091640306
 H1 0.869852 0.971482 0.75779  0.106091640306
 H1 0.498573 0.975171 0.85800  0.106091640306
 H1 0.998507 0.975248 0.85792  0.106091640306
 H1 0.288861 0.093516 0.9714  0.106091640306
 H1 0.788751 0.093339 0.97154  0.106091640306
 H1 0.167293 0.085352 0.86411  0.106091640306
 H1 0.667121 0.085184 0.86421  0.106091640306
 H1 0.45083 0.068 0.03002  0.106091640306
 H1 0.951012 0.068123 0.02994  0.106091640306
 H1 0.045419 0.070798 0.97353  0.106091640306
 H1 0.545342 0.070924 0.97372  0.106091640306
 H1 0.233634 0.898061 0.63672  0.106091640306
 H1 0.733513 0.898091 0.63658  0.106091640306
 H1 0.34804 0.88618 0.54406  0.106091640306
 H1 0.847788 0.886189 0.54383  0.106091640306
 H1 0.386781 0.121947 0.55359  0.106091640306
 H1 0.887111 0.121907 0.55368  0.106091640306
 H1 0.266919 0.124957 0.643  0.106091640306
 H1 0.767452 0.124931 0.64351  0.106091640306
 H1 0.432247 0.047904 0.44946  0.106091640306
 H1 0.9323 0.047859 0.449  0.106091640306
 H1 0.429647 0.95046 0.45185  0.106091640306
 H1 0.929719 0.950418 0.45181  0.106091640306
 H1 0.486995 0.200311 0.40806  0.106091640306
 H1 0.987711 0.200015 0.40708  0.106091640306
 H1 0.382098 0.239804 0.49937  0.106091640306
 H1 0.883401 0.239349 0.49880  0.106091640306
 H1 0.213202 0.292665 0.46424  0.106091640306
 H1 0.714425 0.292322 0.46423  0.106091640306
 H1 0.156479 0.311556 0.33891  0.106091640306
 H1 0.657031 0.31149 0.33904  0.106091640306
 H1 0.172842 0.292643 0.22088  0.106091640306
 H1 0.672734 0.292875 0.22088  0.106091640306
 H1 0.265701 0.234636 0.19245  0.106091640306
 H1 0.765209 0.23474 0.19210  0.106091640306
 H1 0.441643 0.239525 0.22163  0.106091640306
 H1 0.941341 0.239664 0.22077  0.106091640306
 H1 0.024157 0.202951 0.28986  0.106091640306
 H1 0.524114 0.203001 0.29100  0.106091640306
 H1 0.119995 0.528692 0.2578  0.106091640306
 H1 0.620175 0.528495 0.2580  0.106091640306
 H1 0.248564 0.524831 0.35805  0.106091640306
 H1 0.748793 0.524615 0.35819  0.106091640306
 H1 0.038079 0.406924 0.47105  0.106091640306
 H1 0.538365 0.406754 0.47130  0.106091640306
 H1 0.416799 0.415011 0.36397  0.106091640306
 H1 0.916559 0.41516 0.36370  0.106091640306
 H1 0.200365 0.432148 0.52966  0.106091640306
 H1 0.700614 0.43194 0.52986  0.106091640306
 H1 0.294763 0.42913 0.47327  0.106091640306
 H1 0.795026 0.428918 0.47347  0.106091640306
 H1 0.483336 0.601965 0.13708  0.106091640306
 H1 0.98368 0.601815 0.13674  0.106091640306
 H1 0.098077 0.613695 0.04407  0.106091640306
 H1 0.597644 0.613977 0.04439  0.106091640306
 H1 0.136967 0.378065 0.05325  0.106091640306
 H1 0.636893 0.378377 0.05349  0.106091640306
 H1 0.017236 0.375057 0.14303  0.106091640306
 H1 0.51709 0.375213 0.14321  0.106091640306
 H1 0.182043 0.452125 0.94904  0.106091640306
 H1 0.681801 0.4525 0.94931  0.106091640306
 H1 0.180109 0.54953 0.95204  0.106091640306
 H1 0.67982 0.549902 0.95231  0.106091640306
 H1 0.261535 0.699433 0.09341  0.106091640306
 H1 0.760435 0.699857 0.09234  0.106091640306
 H1 0.365342 0.738785 0.00150  0.106091640306
 H1 0.864017 0.739396 0.00037  0.106091640306
 H1 0.033428 0.792341 0.03458  0.106091640306
 H1 0.534531 0.792043 0.03580  0.106091640306
 H1 0.09181 0.811457 0.15973  0.106091640306
 H1 0.592582 0.811467 0.16095  0.106091640306
 H1 0.076788 0.793073 0.27794  0.106091640306
 H1 0.577306 0.793326 0.27915  0.106091640306
 H1 0.485115 0.734946 0.30804  0.106091640306
 H1 0.984431 0.734856 0.30686  0.106091640306
 H1 0.308788 0.739634 0.27975  0.106091640306
 H1 0.808152 0.739389 0.27872  0.106091640306
 H1 0.225716 0.702542 0.21078  0.106091640306
 H1 0.725032 0.702365 0.20974  0.106091640306
 H1 0.130139 0.028488 0.24224  0.106091640306
 H1 0.630011 0.028546 0.24216  0.106091640306
 H1 0.001489 0.024722 0.14210  0.106091640306
 H1 0.501406 0.024808 0.14200  0.106091640306
 H1 0.211265 0.90665 0.02848  0.106091640306
 H1 0.711102 0.906464 0.02850  0.106091640306
 H1 0.332888 0.914805 0.13581  0.106091640306
 H1 0.832674 0.914612 0.13588  0.106091640306
 H1 0.048997 0.931856 0.97008  0.106091640306
 H1 0.549138 0.931984 0.96998  0.106091640306
 H1 0.454627 0.92906 0.02628  0.106091640306
 H1 0.954588 0.929181 0.02649  0.106091640306
 H1 0.266475 0.101887 0.36345  0.106091640306
 H1 0.766387 0.10194 0.36326  0.106091640306
 H1 0.152201 0.113791 0.45620  0.106091640306
 H1 0.651986 0.113829 0.45592  0.106091640306
 H1 0.112869 0.878074 0.4463  0.106091640306
 H1 0.613236 0.878062 0.44641  0.106091640306
 H1 0.232527 0.875048 0.35652  0.106091640306
 H1 0.7331 0.875042 0.35671  0.106091640306
 H1 0.067684 0.952124 0.55063  0.106091640306
 H1 0.567772 0.95211 0.55053  0.106091640306
 H1 0.070265 0.049565 0.54821  0.106091640306
 H1 0.570374 0.049553 0.54815  0.106091640306
 C1 0.211577 0.734219 0.69813  0.114548265306
 C1 0.711829 0.734208 0.6978  0.114548265306
 C1 0.117692 0.766654 0.67860  0.114548265306
 C1 0.617977 0.766575 0.67806  0.114548265306
 C2 0.085254 0.775376 0.60756  -0.171169234694
 C2 0.585873 0.775177 0.60696  -0.171169234694
 C2 0.144204 0.753955 0.55603  -0.171169234694
 C2 0.645109 0.753683 0.55563  -0.171169234694
 C2 0.238204 0.723784 0.57538  -0.171169234694
 C2 0.739065 0.723564 0.57525  -0.171169234694
 C2 0.270606 0.713693 0.645  -0.171169234694
 C2 0.771144 0.713604 0.64582  -0.171169234694
 C3 0.24669 0.718499 0.77365  -0.261040484694
 C3 0.746593 0.718589 0.77345  -0.261040484694
 C4 0.195742 0.650534 0.80174  0.732985765306
 C4 0.69564 0.650579 0.80144  0.732985765306
 C3 0.054265 0.795174 0.73258  -0.261040484694
 C3 0.554229 0.795178 0.73181  -0.261040484694
 C4 0.083385 0.87422 0.75606  0.732985765306
 C4 0.583273 0.874254 0.75519  0.732985765306
 C5 0.395745 0.497454 0.69354  0.197150765306
 C5 0.895941 0.49726 0.69375  0.197150765306
 C2 0.32353 0.500385 0.63679  -0.171169234694
 C2 0.823757 0.500189 0.63698  -0.171169234694
 C1 0.345449 0.534557 0.57525  0.114548265306
 C1 0.845704 0.534365 0.57545  0.114548265306
 C2 0.440664 0.565252 0.57491  -0.171169234694
 C2 0.940915 0.56507 0.57514  -0.171169234694
 C5 0.009384 0.560437 0.63425  0.197150765306
 C5 0.50914 0.560611 0.63400  0.197150765306
 C3 0.268691 0.538475 0.51265  -0.261040484694
 C3 0.768946 0.538265 0.51285  -0.261040484694
 C5 0.480063 0.445972 0.88267  0.197150765306
 C5 0.979709 0.446158 0.8829  0.197150765306
 C2 0.416377 0.440025 0.93421  -0.171169234694
 C2 0.916005 0.440286 0.93449  -0.171169234694
 C1 0.373345 0.503313 0.95952  0.114548265306
 C1 0.873068 0.503625 0.95978  0.114548265306
 C2 0.395652 0.570722 0.92960  -0.171169234694
 C2 0.89547 0.570999 0.92983  -0.171169234694
 C5 0.460576 0.57296 0.87881  0.197150765306
 C5 0.960382 0.573153 0.87903  0.197150765306
 C3 0.305178 0.499704 0.01574  -0.261040484694
 C3 0.804913 0.500084 0.01601  -0.261040484694
 C1 0.039399 0.234308 0.80280  0.114548265306
 C1 0.538624 0.234353 0.80164  0.114548265306
 C1 0.133458 0.266825 0.8221  0.114548265306
 C1 0.632625 0.26695 0.8209  0.114548265306
 C2 0.166508 0.275541 0.89309  -0.171169234694
 C2 0.665481 0.275878 0.89197  -0.171169234694
 C2 0.10799 0.254033 0.94480  -0.171169234694
 C2 0.606848 0.254468 0.94365  -0.171169234694
 C2 0.01378 0.223841 0.92568  -0.171169234694
 C2 0.512734 0.224129 0.92450  -0.171169234694
 C2 0.479903 0.213867 0.85402  -0.171169234694
 C2 0.98075 0.213761 0.8552  -0.171169234694
 C3 0.503178 0.218331 0.72616  -0.261040484694
 C3 0.0 0.218423 0.72732  -0.261040484694
 C4 0.054519 0.150481 0.69895  0.732985765306
 C4 0.554241 0.150469 0.69789  0.732985765306
 C3 0.196421 0.295472 0.76797  -0.261040484694
 C3 0.695766 0.295363 0.76684  -0.261040484694
 C4 0.166937 0.374372 0.74481  0.732985765306
 C4 0.66662 0.374274 0.74346  0.732985765306
 C5 0.354186 0.997447 0.80633  0.197150765306
 C5 0.854049 0.99745 0.80630  0.197150765306
 C2 0.426394 0.0 0.86311  -0.171169234694
 C2 0.926294 0.0 0.86306  -0.171169234694
 C1 0.404659 0.034589 0.92478  0.114548265306
 C1 0.90459 0.03453 0.92477  0.114548265306
 C2 0.309662 0.065461 0.925  -0.171169234694
 C2 0.809547 0.065328 0.92523  -0.171169234694
 C5 0.241182 0.060879 0.86607  0.197150765306
 C5 0.741027 0.060748 0.86611  0.197150765306
 C3 0.481396 0.038408 0.98743  -0.261040484694
 C3 0.981434 0.038395 0.98737  -0.261040484694
 C5 0.270149 0.946088 0.61711  0.197150765306
 C5 0.770141 0.94609 0.61701  0.197150765306
 C2 0.333885 0.940212 0.5655  -0.171169234694
 C2 0.833776 0.940207 0.56543  -0.171169234694
 C1 0.376807 0.0 0.54039  0.114548265306
 C1 0.876785 0.0 0.54031  0.114548265306
 C2 0.354328 0.071007 0.57042  -0.171169234694
 C2 0.854539 0.070985 0.57045  -0.171169234694
 C5 0.289373 0.073169 0.62120  0.197150765306
 C5 0.789692 0.073149 0.62129  0.197150765306
 C3 0.444953 0.0 0.48412  -0.261040484694
 C3 0.944959 0.999984 0.48408  -0.261040484694
 C1 0.288169 0.265771 0.30217  0.114548265306
 C1 0.788423 0.265747 0.30182  0.114548265306
 C1 0.38202 0.233408 0.32199  0.114548265306
 C1 0.882314 0.233305 0.32132  0.114548265306
 C2 0.414116 0.224815 0.39309  -0.171169234694
 C2 0.914796 0.224566 0.39235  -0.171169234694
 C2 0.354871 0.246314 0.44441  -0.171169234694
 C2 0.855887 0.24598 0.44390  -0.171169234694
 C2 0.260913 0.276426 0.42479  -0.171169234694
 C2 0.761882 0.276161 0.42459  -0.171169234694
 C2 0.228843 0.286377 0.35421  -0.171169234694
 C2 0.729435 0.286266 0.35409  -0.171169234694
 C3 0.253415 0.281384 0.22658  -0.261040484694
 C3 0.753269 0.281486 0.22632  -0.261040484694
 C4 0.304361 0.349398 0.19859  0.732985765306
 C4 0.804229 0.349444 0.19822  0.732985765306
 C3 0.445778 0.2048 0.26824  -0.261040484694
 C3 0.945706 0.204813 0.26730  -0.261040484694
 C4 0.41673 0.125725 0.2448  0.732985765306
 C4 0.916592 0.125774 0.24379  0.732985765306
 C5 0.104036 0.502726 0.30627  0.197150765306
 C5 0.604241 0.502533 0.30648  0.197150765306
 C2 0.17622 0.499799 0.36304  -0.171169234694
 C2 0.676458 0.499601 0.36323  -0.171169234694
 C1 0.154277 0.465617 0.4245  0.114548265306
 C1 0.654542 0.465421 0.42477  0.114548265306
 C2 0.059069 0.434905 0.42487  -0.171169234694
 C2 0.559329 0.434722 0.42510  -0.171169234694
 C5 0.490852 0.439365 0.3660  0.197150765306
 C5 0.990601 0.439536 0.36576  0.197150765306
 C3 0.231037 0.461716 0.4871  -0.261040484694
 C3 0.7313 0.461504 0.48737  -0.261040484694
 C5 0.020281 0.553825 0.11706  0.197150765306
 C5 0.519927 0.554006 0.11735  0.197150765306
 C2 0.083984 0.559698 0.06552  -0.171169234694
 C2 0.583614 0.559954 0.06581  -0.171169234694
 C1 0.126923 0.496359 0.04024  0.114548265306
 C1 0.626645 0.496667 0.04050  0.114548265306
 C2 0.104526 0.428985 0.07018  -0.171169234694
 C2 0.604337 0.429257 0.07041  -0.171169234694
 C5 0.039615 0.42683 0.12099  0.197150765306
 C5 0.539412 0.427018 0.12120  0.197150765306
 C3 0.195078 0.499902 0.98401  -0.261040484694
 C3 0.694812 0.500276 0.98428  -0.261040484694
 C1 0.46137 0.76563 0.19838  0.114548265306
 C1 0.9606 0.765665 0.19722  0.114548265306
 C1 0.367371 0.733032 0.17903  0.114548265306
 C1 0.866539 0.733153 0.17791  0.114548265306
 C2 0.334524 0.724109 0.10804  -0.171169234694
 C2 0.83349 0.724444 0.10693  -0.171169234694
 C2 0.393164 0.745525 0.05637  -0.171169234694
 C2 0.89201 0.745954 0.05523  -0.171169234694
 C2 0.487274 0.775865 0.07553  -0.171169234694
 C2 0.986222 0.776142 0.07434  -0.171169234694
 C2 0.019251 0.786215 0.14481  -0.171169234694
 C2 0.520096 0.786122 0.14600  -0.171169234694
 C3 0.996249 0.781547 0.27270  -0.261040484694
 C3 0.496808 0.781645 0.2738  -0.261040484694
 C4 0.445752 0.849509 0.30214  0.732985765306
 C4 0.945476 0.849492 0.30107  0.732985765306
 C3 0.304222 0.704615 0.23317  -0.261040484694
 C3 0.803572 0.704506 0.2320  -0.261040484694
 C4 0.333371 0.625705 0.25655  0.732985765306
 C4 0.833056 0.625607 0.25521  0.732985765306
 C5 0.145947 0.002524 0.1937  0.197150765306
 C5 0.645791 0.002521 0.19367  0.197150765306
 C2 0.073705 0.999656 0.13696  -0.171169234694
 C2 0.573582 0.99967 0.13689  -0.171169234694
 C1 0.095417 0.965448 0.0752  0.114548265306
 C1 0.595311 0.965391 0.07522  0.114548265306
 C2 0.190463 0.934656 0.07480  -0.171169234694
 C2 0.690305 0.934514 0.07480  -0.171169234694
 C5 0.25898 0.939238 0.13391  0.197150765306
 C5 0.758788 0.939087 0.13392  0.197150765306
 C3 0.018574 0.961585 0.01265  -0.261040484694
 C3 0.518573 0.961576 0.01257  -0.261040484694
 C5 0.229845 0.053888 0.3830  0.197150765306
 C5 0.729876 0.053914 0.38288  0.197150765306
 C2 0.16621 0.059772 0.43460  -0.171169234694
 C2 0.666141 0.059795 0.43441  -0.171169234694
 C1 0.123199 0.996422 0.45972  0.114548265306
 C1 0.623215 0.99644 0.45961  0.114548265306
 C2 0.145442 0.928995 0.42958  -0.171169234694
 C2 0.645692 0.929001 0.42958  -0.171169234694
 C5 0.210289 0.92683 0.37873  0.197150765306
 C5 0.710648 0.926833 0.37879  0.197150765306
 C3 0.055026 0.999997 0.51595  -0.261040484694
 C3 0.555068 0.0 0.51587  -0.261040484694
 N1 0.487634 0.526588 0.6927  -0.368944234694
 N1 0.987832 0.526405 0.69298  -0.368944234694
 N1 0.502955 0.511618 0.85552  -0.368944234694
 N1 0.0 0.511766 0.85577  -0.368944234694
 N1 0.26248 0.026752 0.80722  -0.368944234694
 N1 0.762299 0.026687 0.80722  -0.368944234694
 N1 0.247099 0.011755 0.64438  -0.368944234694
 N1 0.747319 0.011748 0.64439  -0.368944234694
 N1 0.012149 0.473573 0.30704  -0.368944234694
 N1 0.512355 0.473394 0.30728  -0.368944234694
 N1 0.997315 0.488216 0.14425  -0.368944234694
 N1 0.497034 0.488359 0.14450  -0.368944234694
 N1 0.237701 0.973293 0.19281  -0.368944234694
 N1 0.737494 0.97321 0.19277  -0.368944234694
 N1 0.252665 0.98823 0.35563  -0.368944234694
 N1 0.752924 0.988244 0.35562  -0.368944234694
 O1 0.182748 0.596457 0.75718  -0.645109234694
 O1 0.682666 0.596553 0.75682  -0.645109234694
 O2 0.171099 0.650068 0.86197  -0.640464234694
 O2 0.670973 0.650038 0.86167  -0.640464234694
 O1 0.091922 0.918933 0.7042  -0.645109234694
 O1 0.591832 0.918947 0.70334  -0.645109234694
 O2 0.095998 0.890845 0.81887  -0.640464234694
 O2 0.595933 0.890953 0.81798  -0.640464234694
 O1 0.067461 0.09647 0.74335  -0.645109234694
 O1 0.56726 0.096538 0.74237  -0.645109234694
 O2 0.079087 0.150007 0.63870  -0.640464234694
 O2 0.57891 0.150008 0.63767  -0.640464234694
 O1 0.158173 0.419091 0.79679  -0.645109234694
 O1 0.658084 0.419099 0.79538  -0.645109234694
 O2 0.154167 0.390945 0.68207  -0.640464234694
 O2 0.654026 0.390726 0.68069  -0.640464234694
 O1 0.317333 0.403424 0.24322  -0.645109234694
 O1 0.817232 0.403519 0.24279  -0.645109234694
 O2 0.329025 0.349942 0.13837  -0.640464234694
 O2 0.828872 0.349907 0.13799  -0.640464234694
 O1 0.408166 0.081031 0.29672  -0.645109234694
 O1 0.908064 0.081047 0.29562  -0.645109234694
 O2 0.404067 0.109026 0.18207  -0.640464234694
 O2 0.904 0.109171 0.18098  -0.640464234694
 O1 0.432735 0.903441 0.25766  -0.645109234694
 O1 0.932534 0.903498 0.25667  -0.645109234694
 O2 0.421089 0.849971 0.36236  -0.640464234694
 O2 0.920908 0.849972 0.36132  -0.640464234694
 O1 0.341908 0.580879 0.20463  -0.645109234694
 O1 0.841821 0.580889 0.20323  -0.645109234694
 O2 0.345966 0.609252 0.31932  -0.640464234694
 O2 0.845825 0.609034 0.31795  -0.640464234694
