#======================================================================

# CRYSTAL DATA

#----------------------------------------------------------------------

data_VESTA_phase_1


_pd_phase_name                         MOF
_cell_length_a                         16.65600
_cell_length_b                         16.66200
_cell_length_c                         16.59900
_cell_angle_alpha                      89.66600
_cell_angle_beta                       90.20800
_cell_angle_gamma                      89.99500
_symmetry_space_group_name_H-M         "P 1"
_symmetry_Int_Tables_number            1

loop_
_symmetry_equiv_pos_as_xyz
   "x, y, z"

loop_
   _atom_site_label
   _atom_site_fract_x
   _atom_site_fract_y
   _atom_site_fract_z
 _atom_site_charge
 H1 0.420552 0.23834 0.5879  0.11816531746
 H1 0.077921 0.263782 0.58836  0.11816531746
 H1 0.07865 0.23691 0.91222  0.11816531746
 H1 0.421222 0.262394 0.91149  0.11816531746
 H1 0.587768 0.42204 0.23593  0.11816531746
 H1 0.5879 0.078461 0.2631  0.11816531746
 H1 0.91104 0.078345 0.23802  0.11816531746
 H1 0.911182 0.42214 0.26281  0.11816531746
 H1 0.236996 0.589298 0.42172  0.11816531746
 H1 0.261852 0.588373 0.07935  0.11816531746
 H1 0.23621 0.911344 0.07832  0.11816531746
 H1 0.262609 0.912316 0.42053  0.11816531746
 H1 0.738296 0.920488 0.41234  0.11816531746
 H1 0.763777 0.577821 0.41144  0.11816531746
 H1 0.737417 0.578979 0.08759  0.11816531746
 H1 0.762936 0.921586 0.08866  0.11816531746
 H1 0.922257 0.087922 0.76413  0.11816531746
 H1 0.57864 0.088109 0.73732  0.11816531746
 H1 0.57856 0.411205 0.76196  0.11816531746
 H1 0.922348 0.411349 0.73670  0.11816531746
 H1 0.089365 0.737455 0.57848  0.11816531746
 H1 0.088787 0.761833 0.92085  0.11816531746
 H1 0.411732 0.736236 0.92144  0.11816531746
 H1 0.412331 0.762992 0.57928  0.11816531746
 H1 0.579478 0.76164 0.41209  0.11816531746
 H1 0.922108 0.736198 0.41164  0.11816531746
 H1 0.921379 0.763071 0.08778  0.11816531746
 H1 0.578808 0.737584 0.08851  0.11816531746
 H1 0.412261 0.577941 0.76407  0.11816531746
 H1 0.412129 0.921518 0.73685  0.11816531746
 H1 0.08899 0.921635 0.7619  0.11816531746
 H1 0.088848 0.57784 0.73719  0.11816531746
 H1 0.763034 0.410681 0.57828  0.11816531746
 H1 0.738177 0.411607 0.92065  0.11816531746
 H1 0.76382 0.088637 0.92168  0.11816531746
 H1 0.73742 0.087665 0.57947  0.11816531746
 H1 0.261734 0.079492 0.58766  0.11816531746
 H1 0.236253 0.42216 0.58856  0.11816531746
 H1 0.262611 0.421003 0.91241  0.11816531746
 H1 0.237094 0.078393 0.91134  0.11816531746
 H1 0.077772 0.912059 0.2358  0.11816531746
 H1 0.421389 0.911871 0.26268  0.11816531746
 H1 0.42147 0.588774 0.23804  0.11816531746
 H1 0.077681 0.588631 0.26329  0.11816531746
 H1 0.910665 0.262525 0.42151  0.11816531746
 H1 0.911243 0.238148 0.07915  0.11816531746
 H1 0.588296 0.263743 0.07856  0.11816531746
 H1 0.587697 0.236989 0.42072  0.11816531746
 H1 0.307679 0.310423 0.51281  0.11816531746
 H1 0.189679 0.192371 0.51251  0.11816531746
 H1 0.190857 0.308527 0.98793  0.11816531746
 H1 0.308793 0.190541 0.98670  0.11816531746
 H1 0.512408 0.309582 0.30792  0.11816531746
 H1 0.512904 0.191361 0.19092  0.11816531746
 H1 0.986003 0.190828 0.30955  0.11816531746
 H1 0.986501 0.310052 0.19154  0.11816531746
 H1 0.308784 0.513934 0.30983  0.11816531746
 H1 0.189728 0.513188 0.19196  0.11816531746
 H1 0.308442 0.986741 0.19045  0.11816531746
 H1 0.190036 0.987528 0.30767  0.11816531746
 H1 0.810349 0.807607 0.48749  0.11816531746
 H1 0.692352 0.689559 0.48719  0.11816531746
 H1 0.809172 0.691454 0.0120  0.11816531746
 H1 0.691237 0.809438 0.01330  0.11816531746
 H1 0.809991 0.012454 0.69233  0.11816531746
 H1 0.691587 0.013239 0.80955  0.11816531746
 H1 0.691246 0.486045 0.69017  0.11816531746
 H1 0.810301 0.486791 0.80804  0.11816531746
 H1 0.014028 0.80915 0.69045  0.11816531746
 H1 0.013528 0.689929 0.80846  0.11816531746
 H1 0.487125 0.808618 0.80908  0.11816531746
 H1 0.487621 0.690399 0.69208  0.11816531746
 Pd1 0.499858 0.24981 0.74979  0.506292539683
 Pd1 0.000175 0.249801 0.75023  0.506292539683
 Pd1 0.749735 0.500152 0.2496  0.506292539683
 Pd1 0.749722 0.999835 0.25036  0.506292539683
 Pd1 0.250508 0.750516 0.49999  0.506292539683
 Pd1 0.250071 0.749816 0.  0.506292539683
 Pd1 0.500171 0.75017 0.25021  0.506292539683
 Pd1 0.999834 0.750179 0.24977  0.506292539683
 Pd1 0.250294 0.499828 0.75037  0.506292539683
 Pd1 0.250299 0.000167 0.74964  0.506292539683
 Pd1 0.749522 0.249464 0.50001  0.506292539683
 Pd1 0.749959 0.250162 0.  0.506292539683
 C1 0.388235 0.289073 0.61351  0.206522539683
 C1 0.110467 0.212644 0.61368  0.206522539683
 C1 0.111086 0.287904 0.88670  0.206522539683
 C1 0.388824 0.211501 0.88609  0.206522539683
 C1 0.613094 0.389375 0.28721  0.206522539683
 C1 0.613263 0.111059 0.2120  0.206522539683
 C1 0.885535 0.110828 0.28877  0.206522539683
 C1 0.88571 0.389581 0.21191  0.206522539683
 C1 0.288048 0.614543 0.38928  0.206522539683
 C1 0.211051 0.613929 0.11166  0.206522539683
 C1 0.287503 0.8862 0.11083  0.206522539683
 C1 0.211572 0.886862 0.38815  0.206522539683
 C1 0.789032 0.888169 0.38668  0.206522539683
 C1 0.712632 0.610368 0.38615  0.206522539683
 C1 0.788318 0.611367 0.11319  0.206522539683
 C1 0.711936 0.889138 0.11398  0.206522539683
 C1 0.889576 0.113244 0.71288  0.206522539683
 C1 0.611196 0.113499 0.78832  0.206522539683
 C1 0.611046 0.385717 0.71119  0.206522539683
 C1 0.889719 0.385924 0.78771  0.206522539683
 C1 0.114698 0.788382 0.61087  0.206522539683
 C1 0.114297 0.711045 0.88855  0.206522539683
 C1 0.38655 0.787533 0.88893  0.206522539683
 C1 0.386962 0.711849 0.61169  0.206522539683
 C1 0.611796 0.710909 0.38649  0.206522539683
 C1 0.889562 0.787336 0.38632  0.206522539683
 C1 0.888943 0.712076 0.11330  0.206522539683
 C1 0.611206 0.788479 0.11391  0.206522539683
 C1 0.386936 0.610606 0.71279  0.206522539683
 C1 0.386766 0.88892 0.78796  0.206522539683
 C1 0.114495 0.889151 0.71123  0.206522539683
 C1 0.114319 0.6104 0.78809  0.206522539683
 C1 0.711982 0.385437 0.61072  0.206522539683
 C1 0.788979 0.386052 0.88834  0.206522539683
 C1 0.712526 0.11378 0.88917  0.206522539683
 C1 0.788456 0.11312 0.6118  0.206522539683
 C1 0.210997 0.11181 0.61331  0.206522539683
 C1 0.287398 0.389613 0.61385  0.206522539683
 C1 0.211711 0.388613 0.88680  0.206522539683
 C1 0.288094 0.110842 0.88601  0.206522539683
 C1 0.110453 0.886737 0.28712  0.206522539683
 C1 0.388834 0.886482 0.2116  0.206522539683
 C1 0.388984 0.614263 0.28881  0.206522539683
 C1 0.11031 0.614056 0.21229  0.206522539683
 C1 0.885332 0.211598 0.38913  0.206522539683
 C1 0.885733 0.288935 0.11144  0.206522539683
 C1 0.61348 0.212447 0.11107  0.206522539683
 C1 0.613067 0.288131 0.38831  0.206522539683
 C2 0.375374 0.375495 0.72719  0.645522539683
 C3 0.326201 0.328222 0.57292  -0.337147460317
 C2 0.12455 0.124667 0.72717  0.645522539683
 C3 0.171866 0.173848 0.57269  -0.337147460317
 C2 0.124623 0.375346 0.7728  0.645522539683
 C3 0.172748 0.326797 0.92763  -0.337147460317
 C2 0.375495 0.124478 0.77283  0.645522539683
 C3 0.327033 0.172477 0.92672  -0.337147460317
 C2 0.726138 0.375454 0.3752  0.645522539683
 C3 0.572398 0.327548 0.32629  -0.337147460317
 C2 0.726198 0.124577 0.12461  0.645522539683
 C3 0.572774 0.173141 0.1728  -0.337147460317
 C2 0.772132 0.124379 0.37557  0.645522539683
 C3 0.926053 0.172643 0.32761  -0.337147460317
 C2 0.772169 0.375635 0.12451  0.645522539683
 C3 0.926426 0.327993 0.17320  -0.337147460317
 C2 0.375572 0.727492 0.37554  0.645522539683
 C3 0.327053 0.573816 0.32779  -0.337147460317
 C2 0.124427 0.727518 0.12461  0.645522539683
 C3 0.171869 0.573271 0.17354  -0.337147460317
 C2 0.37546 0.773566 0.12453  0.645522539683
 C3 0.326732 0.926909 0.17247  -0.337147460317
 C2 0.124506 0.773636 0.37527  0.645522539683
 C3 0.172158 0.927502 0.32611  -0.337147460317
 C2 0.87548 0.875313 0.27283  0.645522539683
 C3 0.828163 0.826131 0.4273  -0.337147460317
 C2 0.624656 0.624485 0.27281  0.645522539683
 C3 0.673829 0.671759 0.42708  -0.337147460317
 C2 0.875405 0.624636 0.2271  0.645522539683
 C3 0.827281 0.673184 0.07237  -0.337147460317
 C2 0.624536 0.875501 0.22717  0.645522539683
 C3 0.672997 0.827502 0.07328  -0.337147460317
 C2 0.875524 0.226345 0.62473  0.645522539683
 C3 0.827871 0.072479 0.6738  -0.337147460317
 C2 0.624571 0.226415 0.87547  0.645522539683
 C3 0.673297 0.073071 0.82753  -0.337147460317
 C2 0.624458 0.272487 0.62446  0.645522539683
 C3 0.672977 0.426163 0.6722  -0.337147460317
 C2 0.875602 0.272462 0.87539  0.645522539683
 C3 0.828161 0.426709 0.82646  -0.337147460317
 C2 0.227897 0.875601 0.62443  0.645522539683
 C3 0.073977 0.827336 0.67239  -0.337147460317
 C2 0.22786 0.624346 0.87549  0.645522539683
 C3 0.073603 0.671986 0.82680  -0.337147460317
 C2 0.273831 0.875403 0.87539  0.645522539683
 C3 0.427255 0.826839 0.82716  -0.337147460317
 C2 0.27389 0.624528 0.6247  0.645522539683
 C3 0.42763 0.672433 0.67371  -0.337147460317
 N1 0.411534 0.310973 0.68743  -0.367897460317
 N1 0.088099 0.189788 0.6876  -0.367897460317
 N1 0.088318 0.310431 0.81255  -0.367897460317
 N1 0.411757 0.189233 0.81234  -0.367897460317
 N1 0.686826 0.411992 0.30991  -0.367897460317
 N1 0.686848 0.088106 0.18969  -0.367897460317
 N1 0.811818 0.087947 0.31104  -0.367897460317
 N1 0.811839 0.412137 0.18929  -0.367897460317
 N1 0.310578 0.688178 0.4118  -0.367897460317
 N1 0.189069 0.687824 0.08849  -0.367897460317
 N1 0.310106 0.812656 0.08821  -0.367897460317
 N1 0.189531 0.813063 0.41139  -0.367897460317
 N1 0.810951 0.911475 0.3126  -0.367897460317
 N1 0.689779 0.588018 0.31224  -0.367897460317
 N1 0.810633 0.588385 0.18735  -0.367897460317
 N1 0.689437 0.911841 0.1877  -0.367897460317
 N1 0.912071 0.187022 0.6900  -0.367897460317
 N1 0.588153 0.187041 0.81054  -0.367897460317
 N1 0.58805 0.312089 0.68903  -0.367897460317
 N1 0.912162 0.312044 0.81044  -0.367897460317
 N1 0.188426 0.810795 0.58817  -0.367897460317
 N1 0.188183 0.688956 0.9116  -0.367897460317
 N1 0.312959 0.810048 0.91169  -0.367897460317
 N1 0.313217 0.689679 0.58855  -0.367897460317
 N1 0.588496 0.689008 0.31256  -0.367897460317
 N1 0.91193 0.810192 0.31231  -0.367897460317
 N1 0.911712 0.689548 0.18745  -0.367897460317
 N1 0.588272 0.810747 0.18766  -0.367897460317
 N1 0.313204 0.587988 0.6900  -0.367897460317
 N1 0.313181 0.911875 0.81031  -0.367897460317
 N1 0.188211 0.912033 0.68896  -0.367897460317
 N1 0.188191 0.587843 0.81071  -0.367897460317
 N1 0.689451 0.311802 0.58814  -0.367897460317
 N1 0.810961 0.312157 0.91151  -0.367897460317
 N1 0.689923 0.187324 0.91179  -0.367897460317
 N1 0.810498 0.186918 0.58861  -0.367897460317
 N1 0.189078 0.088505 0.68733  -0.367897460317
 N1 0.310251 0.411962 0.68776  -0.367897460317
 N1 0.189397 0.411595 0.81265  -0.367897460317
 N1 0.310592 0.088139 0.81226  -0.367897460317
 N1 0.087958 0.812959 0.30992  -0.367897460317
 N1 0.411876 0.812939 0.18946  -0.367897460317
 N1 0.411979 0.687891 0.3109  -0.367897460317
 N1 0.087867 0.687936 0.18956  -0.367897460317
 N1 0.811604 0.189185 0.4118  -0.367897460317
 N1 0.811846 0.311024 0.08838  -0.367897460317
 N1 0.68707 0.189933 0.08831  -0.367897460317
 N1 0.686813 0.310301 0.41145  -0.367897460317
 O1 0.399217 0.398675 0.79368  -0.593267460317
 O1 0.101345 0.100817 0.7937  -0.593267460317
 O1 0.101113 0.398999 0.70611  -0.593267460317
 O1 0.399092 0.101041 0.70651  -0.593267460317
 O1 0.792263 0.39911 0.39932  -0.593267460317
 O1 0.79219 0.100739 0.10083  -0.593267460317
 O1 0.70574 0.100963 0.39893  -0.593267460317
 O1 0.705635 0.39887 0.10088  -0.593267460317
 O1 0.39915 0.793736 0.39890  -0.593267460317
 O1 0.101216 0.794029 0.10085  -0.593267460317
 O1 0.399331 0.707601 0.10087  -0.593267460317
 O1 0.100959 0.707438 0.39936  -0.593267460317
 O1 0.898683 0.899163 0.20624  -0.593267460317
 O1 0.600813 0.601306 0.20632  -0.593267460317
 O1 0.898917 0.60098 0.29388  -0.593267460317
 O1 0.600936 0.89894 0.2934  -0.593267460317
 O1 0.899069 0.292543 0.6006  -0.593267460317
 O1 0.600698 0.292379 0.89913  -0.593267460317
 O1 0.600879 0.206245 0.60110  -0.593267460317
 O1 0.898814 0.205952 0.89915  -0.593267460317
 O1 0.29429 0.899017 0.60107  -0.593267460317
 O1 0.294394 0.60111 0.8991  -0.593267460317
 O1 0.207839 0.899241 0.89917  -0.593267460317
 O1 0.207766 0.60087 0.60068  -0.593267460317
