#======================================================================

# CRYSTAL DATA

#----------------------------------------------------------------------

data_VESTA_phase_1


_pd_phase_name                         MOF
_cell_length_a                         20.67700
_cell_length_b                         20.59500
_cell_length_c                         12.00100
_cell_angle_alpha                      90.06700
_cell_angle_beta                       90.23400
_cell_angle_gamma                      90.04000
_symmetry_space_group_name_H-M         "P 1"
_symmetry_Int_Tables_number            1

loop_
_symmetry_equiv_pos_as_xyz
   "x, y, z"

loop_
   _atom_site_label
   _atom_site_fract_x
   _atom_site_fract_y
   _atom_site_fract_z
 _atom_site_charge
 Zn1 0.344689 0.344294 0.50072  0.836692368421
 Zn1 0.344698 0.844286 0.50072  0.836692368421
 Zn1 0.844706 0.344294 0.50072  0.836692368421
 Zn1 0.844694 0.844285 0.50072  0.836692368421
 Zn1 0.155632 0.155553 0.00406  0.836692368421
 Zn1 0.155631 0.655555 0.00407  0.836692368421
 Zn1 0.655635 0.155569 0.00407  0.836692368421
 Zn1 0.655638 0.655546 0.0040  0.836692368421
 Zn1 0.405202 0.094459 0.75399  0.836692368421
 Zn1 0.405198 0.594452 0.75399  0.836692368421
 Zn1 0.905202 0.09446 0.75400  0.836692368421
 Zn1 0.905206 0.594451 0.75399  0.836692368421
 Zn1 0.094321 0.405645 0.2515  0.836692368421
 Zn1 0.094321 0.905643 0.2516  0.836692368421
 Zn1 0.59433 0.405657 0.25169  0.836692368421
 Zn1 0.594326 0.905638 0.25153  0.836692368421
 H1 0.283502 0.204211 0.44546  0.0850173684211
 H1 0.283467 0.704209 0.44551  0.0850173684211
 H1 0.783467 0.204219 0.44552  0.0850173684211
 H1 0.783501 0.704201 0.44547  0.0850173684211
 H2 0.462114 0.23487 0.75050  0.332878618421
 H2 0.462134 0.734857 0.75046  0.332878618421
 H2 0.962145 0.234866 0.75045  0.332878618421
 H2 0.962116 0.734865 0.7505  0.332878618421
 H2 0.433647 0.306669 0.69633  0.332878618421
 H2 0.433657 0.806657 0.69631  0.332878618421
 H2 0.933662 0.306664 0.69631  0.332878618421
 H2 0.933637 0.806662 0.6963  0.332878618421
 H1 0.219178 0.295236 0.95002  0.0850173684211
 H1 0.219122 0.795254 0.94999  0.0850173684211
 H1 0.719069 0.295275 0.94994  0.0850173684211
 H1 0.719152 0.795233 0.94997  0.0850173684211
 H2 0.036305 0.266515 0.24508  0.332878618421
 H2 0.036329 0.766493 0.24520  0.332878618421
 H2 0.536368 0.266488 0.24531  0.332878618421
 H2 0.53633 0.766504 0.24513  0.332878618421
 H2 0.065862 0.1943 0.19490  0.332878618421
 H2 0.06587 0.694285 0.19495  0.332878618421
 H2 0.565894 0.194288 0.1950  0.332878618421
 H2 0.565888 0.694291 0.19494  0.332878618421
 H1 0.044027 0.033599 0.69758  0.0850173684211
 H1 0.044038 0.53361 0.69756  0.0850173684211
 H1 0.544049 0.033632 0.69754  0.0850173684211
 H1 0.54404 0.533624 0.6975  0.0850173684211
 H2 0.514104 0.210826 0.00593  0.332878618421
 H2 0.5141 0.710819 0.00594  0.332878618421
 H2 0.0 0.210837 0.00591  0.332878618421
 H2 0.0 0.710831 0.00591  0.332878618421
 H2 0.442856 0.182923 0.94927  0.332878618421
 H2 0.442854 0.682935 0.94924  0.332878618421
 H2 0.94286 0.182957 0.94921  0.332878618421
 H2 0.942861 0.682932 0.94924  0.332878618421
 H1 0.455062 0.464276 0.19258  0.0850173684211
 H1 0.455052 0.964231 0.19250  0.0850173684211
 H1 0.955056 0.464199 0.19245  0.0850173684211
 H1 0.955059 0.964208 0.19249  0.0850173684211
 H2 0.98614 0.289961 0.50517  0.332878618421
 H2 0.986127 0.789952 0.50518  0.332878618421
 H2 0.48613 0.289939 0.50514  0.332878618421
 H2 0.486142 0.789949 0.50514  0.332878618421
 H2 0.057417 0.316781 0.44718  0.332878618421
 H2 0.057405 0.816794 0.44724  0.332878618421
 H2 0.557409 0.316806 0.44725  0.332878618421
 H2 0.55742 0.81678 0.44717  0.332878618421
 H1 0.466324 0.454684 0.80917  0.0850173684211
 H1 0.466336 0.954673 0.80917  0.0850173684211
 H1 0.96633 0.454682 0.80919  0.0850173684211
 H1 0.966285 0.954672 0.80923  0.0850173684211
 H2 0.287898 0.984602 0.50376  0.332878618421
 H2 0.287896 0.484597 0.50375  0.332878618421
 H2 0.787918 0.984608 0.50370  0.332878618421
 H2 0.787913 0.484594 0.5037  0.332878618421
 H2 0.316202 0.056493 0.55822  0.332878618421
 H2 0.316185 0.556488 0.55823  0.332878618421
 H2 0.816191 0.056498 0.55822  0.332878618421
 H2 0.816208 0.556485 0.55822  0.332878618421
 H1 0.030857 0.045512 0.30605  0.0850173684211
 H1 0.03087 0.545487 0.30603  0.0850173684211
 H1 0.53092 0.045501 0.30609  0.0850173684211
 H1 0.530921 0.545517 0.30614  0.0850173684211
 H2 0.213653 0.516437 0.  0.332878618421
 H2 0.213659 0.0 0.  0.332878618421
 H2 0.713629 0.516427 0.  0.332878618421
 H2 0.71363 0.0 0.  0.332878618421
 H2 0.18403 0.444256 0.06100  0.332878618421
 H2 0.18402 0.944247 0.06104  0.332878618421
 H2 0.684003 0.444249 0.06101  0.332878618421
 H2 0.684019 0.944245 0.06096  0.332878618421
 H1 0.205749 0.283007 0.55646  0.0850173684211
 H1 0.205762 0.783025 0.55654  0.0850173684211
 H1 0.705773 0.283037 0.55657  0.0850173684211
 H1 0.70575 0.783004 0.5564  0.0850173684211
 H2 0.235956 0.460903 0.25001  0.332878618421
 H2 0.235953 0.960884 0.25002  0.332878618421
 H2 0.735957 0.460882 0.25002  0.332878618421
 H2 0.735959 0.960895 0.25001  0.332878618421
 H2 0.30718 0.432679 0.30608  0.332878618421
 H2 0.307181 0.932662 0.30607  0.332878618421
 H2 0.807187 0.432652 0.30606  0.332878618421
 H2 0.807184 0.932658 0.30605  0.332878618421
 H1 0.295008 0.213976 0.06358  0.0850173684211
 H1 0.295005 0.714033 0.06350  0.0850173684211
 H1 0.795005 0.214095 0.06344  0.0850173684211
 H1 0.795011 0.714015 0.06352  0.0850173684211
 H2 0.263687 0.040166 0.74943  0.332878618421
 H2 0.26369 0.540143 0.74950  0.332878618421
 H2 0.763701 0.040135 0.74955  0.332878618421
 H2 0.763696 0.540149 0.7494  0.332878618421
 H2 0.192456 0.066773 0.80780  0.332878618421
 H2 0.192458 0.566774 0.80782  0.332878618421
 H2 0.692465 0.066786 0.80783  0.332878618421
 H2 0.692464 0.566778 0.80780  0.332878618421
 C1 0.395304 0.223926 0.62742  0.657912368421
 C1 0.395304 0.723917 0.62741  0.657912368421
 C1 0.895311 0.223925 0.62741  0.657912368421
 C1 0.895305 0.723919 0.62743  0.657912368421
 C2 0.320152 0.19976 0.5099  0.248392368421
 C2 0.320128 0.699757 0.5100  0.248392368421
 C2 0.82013 0.199766 0.51002  0.248392368421
 C2 0.820151 0.699751 0.50998  0.248392368421
 C1 0.104812 0.276576 0.12580  0.657912368421
 C1 0.104806 0.776572 0.12587  0.657912368421
 C1 0.604807 0.27658 0.12591  0.657912368421
 C1 0.604816 0.776569 0.1258  0.657912368421
 C2 0.18156 0.300114 0.01224  0.248392368421
 C2 0.181522 0.800123 0.0122  0.248392368421
 C2 0.681488 0.30014 0.01223  0.248392368421
 C2 0.681544 0.800109 0.0122  0.248392368421
 C1 0.02522 0.144855 0.88101  0.657912368421
 C1 0.025222 0.644852 0.88101  0.657912368421
 C1 0.525228 0.144856 0.88102  0.657912368421
 C1 0.525227 0.644852 0.88101  0.657912368421
 C2 0.04882 0.070063 0.76244  0.248392368421
 C2 0.048828 0.570071 0.76243  0.248392368421
 C2 0.548837 0.070087 0.76241  0.248392368421
 C2 0.548831 0.570079 0.76241  0.248392368421
 C1 0.474663 0.354756 0.37865  0.657912368421
 C1 0.474669 0.85474 0.3786  0.657912368421
 C1 0.974675 0.354736 0.37862  0.657912368421
 C1 0.974667 0.854737 0.37865  0.657912368421
 C2 0.450545 0.428359 0.25818  0.248392368421
 C2 0.450541 0.928325 0.25811  0.248392368421
 C2 0.950546 0.428303 0.25809  0.248392368421
 C2 0.950544 0.928309 0.25812  0.248392368421
 C1 0.354526 0.473914 0.62714  0.657912368421
 C1 0.354536 0.973902 0.62714  0.657912368421
 C1 0.854541 0.473911 0.62714  0.657912368421
 C1 0.854525 0.973903 0.62713  0.657912368421
 C2 0.429675 0.450046 0.74467  0.248392368421
 C2 0.429687 0.950034 0.74466  0.248392368421
 C2 0.929684 0.450043 0.74468  0.248392368421
 C2 0.92965 0.950034 0.74470  0.248392368421
 C1 0.145102 0.026634 0.13010  0.657912368421
 C1 0.145109 0.526624 0.13006  0.657912368421
 C1 0.645117 0.026634 0.13004  0.657912368421
 C1 0.645112 0.526623 0.13009  0.657912368421
 C2 0.068436 0.05029 0.24374  0.248392368421
 C2 0.068447 0.550271 0.24372  0.248392368421
 C2 0.568483 0.050284 0.24375  0.248392368421
 C2 0.568483 0.550289 0.24380  0.248392368421
 C1 0.224732 0.394695 0.37427  0.657912368421
 C1 0.224735 0.894693 0.37431  0.657912368421
 C1 0.724743 0.394697 0.37433  0.657912368421
 C1 0.724737 0.894686 0.37427  0.657912368421
 C2 0.20101 0.319671 0.49209  0.248392368421
 C2 0.201018 0.819685 0.49216  0.248392368421
 C2 0.701027 0.319696 0.49219  0.248392368421
 C2 0.701013 0.819667 0.49209  0.248392368421
 C1 0.275238 0.104817 0.8764  0.657912368421
 C1 0.275237 0.604826 0.87644  0.657912368421
 C1 0.775241 0.104847 0.87644  0.657912368421
 C1 0.775244 0.604822 0.87643  0.657912368421
 C2 0.29946 0.178225 0.9975  0.248392368421
 C2 0.299457 0.678266 0.99750  0.248392368421
 C2 0.799459 0.178313 0.99746  0.248392368421
 C2 0.799464 0.678252 0.99751  0.248392368421
 N1 0.355125 0.251476 0.55012  -0.569637631579
 N1 0.355117 0.751468 0.55013  -0.569637631579
 N1 0.85512 0.251477 0.55014  -0.569637631579
 N1 0.855123 0.751468 0.55013  -0.569637631579
 N2 0.384644 0.159493 0.63376  -0.401252631579
 N2 0.384636 0.659486 0.63376  -0.401252631579
 N2 0.884643 0.159494 0.6337  -0.401252631579
 N2 0.884648 0.659485 0.63376  -0.401252631579
 N3 0.335859 0.144291 0.55749  -0.330057631579
 N3 0.335835 0.644288 0.55752  -0.330057631579
 N3 0.83584 0.144296 0.55753  -0.330057631579
 N3 0.835862 0.644282 0.55750  -0.330057631579
 N4 0.442997 0.257514 0.68213  -0.774477631579
 N4 0.443009 0.757503 0.68209  -0.774477631579
 N4 0.943017 0.257512 0.68209  -0.774477631579
 N4 0.942996 0.75751 0.68214  -0.774477631579
 N1 0.146164 0.248614 0.05144  -0.569637631579
 N1 0.146139 0.748617 0.05146  -0.569637631579
 N1 0.646122 0.24863 0.05147  -0.569637631579
 N1 0.64616 0.748607 0.05143  -0.569637631579
 N2 0.115078 0.341075 0.13134  -0.401252631579
 N2 0.115075 0.84107 0.13143  -0.401252631579
 N2 0.615073 0.341079 0.13147  -0.401252631579
 N2 0.615076 0.841069 0.13134  -0.401252631579
 N3 0.164923 0.355908 0.0576  -0.330057631579
 N3 0.164899 0.855912 0.05771  -0.330057631579
 N3 0.664874 0.355926 0.05771  -0.330057631579
 N3 0.664908 0.855904 0.05764  -0.330057631579
 N4 0.05646 0.243199 0.17850  -0.774477631579
 N4 0.056468 0.743189 0.17859  -0.774477631579
 N4 0.556486 0.243193 0.17868  -0.774477631579
 N4 0.556477 0.743189 0.1785  -0.774477631579
 N1 0.497498 0.104811 0.80342  -0.569637631579
 N1 0.497494 0.604807 0.80342  -0.569637631579
 N1 0.997497 0.104803 0.80343  -0.569637631579
 N1 0.997501 0.604802 0.80342  -0.569637631579
 N2 0.089491 0.134327 0.88650  -0.401252631579
 N2 0.089494 0.634332 0.88650  -0.401252631579
 N2 0.589501 0.13434 0.88649  -0.401252631579
 N2 0.589499 0.634329 0.88649  -0.401252631579
 N3 0.104302 0.085767 0.8096  -0.330057631579
 N3 0.104309 0.585778 0.80962  -0.330057631579
 N3 0.604318 0.085795 0.80961  -0.330057631579
 N3 0.604313 0.585782 0.80961  -0.330057631579
 N4 0.491899 0.192161 0.93652  -0.774477631579
 N4 0.491902 0.692161 0.93651  -0.774477631579
 N4 0.991909 0.192175 0.93648  -0.774477631579
 N4 0.991906 0.692165 0.93650  -0.774477631579
 N1 0.002122 0.394157 0.3002  -0.569637631579
 N1 0.002118 0.894166 0.30031  -0.569637631579
 N1 0.502128 0.394206 0.30035  -0.569637631579
 N1 0.502128 0.89417 0.30027  -0.569637631579
 N2 0.410368 0.365109 0.38334  -0.401252631579
 N2 0.410376 0.865107 0.3833  -0.401252631579
 N2 0.910382 0.365101 0.38333  -0.401252631579
 N2 0.910372 0.865092 0.38334  -0.401252631579
 N3 0.395217 0.412905 0.30527  -0.330057631579
 N3 0.39522 0.912891 0.30524  -0.330057631579
 N3 0.895224 0.412873 0.30522  -0.330057631579
 N3 0.895218 0.912868 0.30523  -0.330057631579
 N4 0.008118 0.308088 0.43561  -0.774477631579
 N4 0.008112 0.808088 0.43563  -0.774477631579
 N4 0.50812 0.308092 0.43560  -0.774477631579
 N4 0.508123 0.808083 0.43558  -0.774477631579
 N1 0.394696 0.001643 0.70446  -0.569637631579
 N1 0.394685 0.501635 0.70446  -0.569637631579
 N1 0.894669 0.001644 0.70448  -0.569637631579
 N1 0.894697 0.501633 0.70447  -0.569637631579
 N2 0.365214 0.409487 0.62088  -0.401252631579
 N2 0.365222 0.909475 0.62088  -0.401252631579
 N2 0.86523 0.409485 0.62088  -0.401252631579
 N2 0.865211 0.909476 0.62088  -0.401252631579
 N3 0.413991 0.394477 0.6971  -0.330057631579
 N3 0.413999 0.894465 0.6971  -0.330057631579
 N3 0.914002 0.394474 0.69720  -0.330057631579
 N3 0.913972 0.894465 0.69722  -0.330057631579
 N4 0.306873 0.00733 0.57231  -0.774477631579
 N4 0.306865 0.507321 0.57230  -0.774477631579
 N4 0.806874 0.007329 0.57227  -0.774477631579
 N4 0.806882 0.50732 0.57230  -0.774477631579
 N1 0.103805 0.498737 0.20454  -0.569637631579
 N1 0.1038 0.998734 0.20460  -0.569637631579
 N1 0.603828 0.498747 0.20462  -0.569637631579
 N1 0.603827 0.998729 0.20455  -0.569637631579
 N2 0.134819 0.091102 0.12437  -0.401252631579
 N2 0.134829 0.591093 0.12436  -0.401252631579
 N2 0.634845 0.091105 0.12436  -0.401252631579
 N2 0.634833 0.591092 0.12437  -0.401252631579
 N3 0.085028 0.106012 0.19813  -0.330057631579
 N3 0.085041 0.605997 0.19813  -0.330057631579
 N3 0.585074 0.10601 0.19816  -0.330057631579
 N3 0.585067 0.606008 0.19817  -0.330057631579
 N4 0.193438 0.493192 0.0773  -0.774477631579
 N4 0.193437 0.99318 0.07744  -0.774477631579
 N4 0.693426 0.493184 0.07739  -0.774477631579
 N4 0.693432 0.993182 0.07733  -0.774477631579
 N1 0.252416 0.354379 0.45127  -0.569637631579
 N1 0.252423 0.854376 0.45130  -0.569637631579
 N1 0.752432 0.35438 0.45131  -0.569637631579
 N1 0.75242 0.854369 0.45127  -0.569637631579
 N2 0.160425 0.384356 0.36895  -0.401252631579
 N2 0.160424 0.884368 0.36903  -0.401252631579
 N2 0.660431 0.384379 0.36906  -0.401252631579
 N2 0.660428 0.884351 0.36895  -0.401252631579
 N3 0.145526 0.335638 0.4453  -0.330057631579
 N3 0.145528 0.835659 0.44543  -0.330057631579
 N3 0.645535 0.335675 0.44547  -0.330057631579
 N3 0.645528 0.835636 0.44533  -0.330057631579
 N4 0.258186 0.44203 0.31913  -0.774477631579
 N4 0.258188 0.942014 0.31913  -0.774477631579
 N4 0.758197 0.442012 0.31913  -0.774477631579
 N4 0.758194 0.942018 0.31912  -0.774477631579
 N1 0.247847 0.144005 0.95530  -0.569637631579
 N1 0.247845 0.644032 0.95528  -0.569637631579
 N1 0.747848 0.144068 0.95527  -0.569637631579
 N1 0.747852 0.644022 0.9552  -0.569637631579
 N2 0.339524 0.115353 0.87152  -0.401252631579
 N2 0.339521 0.615362 0.87152  -0.401252631579
 N2 0.839525 0.115384 0.87152  -0.401252631579
 N2 0.839529 0.615357 0.87152  -0.401252631579
 N3 0.35473 0.163023 0.95001  -0.330057631579
 N3 0.354727 0.663053 0.94997  -0.330057631579
 N3 0.854729 0.163092 0.94994  -0.330057631579
 N3 0.854734 0.663042 0.94998  -0.330057631579
 N4 0.241762 0.058164 0.81919  -0.774477631579
 N4 0.24176 0.558156 0.81924  -0.774477631579
 N4 0.741765 0.058163 0.8192  -0.774477631579
 N4 0.741766 0.558158 0.81922  -0.774477631579
