#======================================================================

# CRYSTAL DATA

#----------------------------------------------------------------------

data_VESTA_phase_1


_pd_phase_name                         MOF
_cell_length_a                         24.46700
_cell_length_b                         12.62600
_cell_length_c                         16.55700
_cell_angle_alpha                      89.85800
_cell_angle_beta                       90.28800
_cell_angle_gamma                      89.91500
_symmetry_space_group_name_H-M         "P 1"
_symmetry_Int_Tables_number            1

loop_
_symmetry_equiv_pos_as_xyz
   "x, y, z"

loop_
   _atom_site_label
   _atom_site_fract_x
   _atom_site_fract_y
   _atom_site_fract_z
 _atom_site_charge
 Zn1 0.326698 0.750012 0.74971  0.84945127907
 Zn1 0.826536 0.750362 0.74993  0.84945127907
 Zn1 0.173438 0.249687 0.25003  0.84945127907
 Zn1 0.673304 0.250068 0.25022  0.84945127907
 Zn1 0.421717 0.250375 0.74985  0.84945127907
 Zn1 0.921512 0.250496 0.74996  0.84945127907
 Zn1 0.07849 0.749354 0.24999  0.84945127907
 Zn1 0.578461 0.749803 0.24994  0.84945127907
 H1 0.366573 0.72405 0.57512  0.103462945736
 H1 0.865908 0.725173 0.57524  0.103462945736
 H1 0.4058 0.926253 0.76408  0.103462945736
 H1 0.905681 0.926742 0.76436  0.103462945736
 H1 0.441368 0.797707 0.48928  0.103462945736
 H1 0.940759 0.79839 0.4893  0.103462945736
 H1 0.479662 0.010933 0.68540  0.103462945736
 H1 0.979667 0.010968 0.68562  0.103462945736
 H1 0.041703 0.996931 0.56901  0.103462945736
 H1 0.54181 0.997101 0.56869  0.103462945736
 H1 0.03201 0.894676 0.49625  0.103462945736
 H1 0.532006 0.895357 0.49552  0.103462945736
 H1 0.04016 0.488002 0.92833  0.103462945736
 H1 0.540618 0.489794 0.92924  0.103462945736
 H1 0.03681 0.598545 0.99505  0.103462945736
 H1 0.53623 0.599277 0.9968  0.103462945736
 H1 0.482817 0.489888 0.80813  0.103462945736
 H1 0.982623 0.489969 0.80715  0.103462945736
 H1 0.442083 0.694903 0.  0.103462945736
 H1 0.942019 0.693465 0.  0.103462945736
 H1 0.40869 0.575676 0.72959  0.103462945736
 H1 0.908436 0.576321 0.72912  0.103462945736
 H1 0.367221 0.769877 0.92221  0.103462945736
 H1 0.867044 0.768999 0.92266  0.103462945736
 H1 0.134066 0.273256 0.42500  0.103462945736
 H1 0.633264 0.275175 0.42470  0.103462945736
 H1 0.094194 0.073931 0.23454  0.103462945736
 H1 0.594145 0.074207 0.2349  0.103462945736
 H1 0.059147 0.199185 0.51037  0.103462945736
 H1 0.558235 0.201293 0.51002  0.103462945736
 H1 0.020116 0.98904 0.31265  0.103462945736
 H1 0.5201 0.989262 0.31308  0.103462945736
 H1 0.457895 0.0 0.42982  0.103462945736
 H1 0.958248 0.0 0.42951  0.103462945736
 H1 0.467545 0.103961 0.50310  0.103462945736
 H1 0.96767 0.103443 0.50246  0.103462945736
 H1 0.45972 0.510668 0.07011  0.103462945736
 H1 0.960407 0.512376 0.07035  0.103462945736
 H1 0.464139 0.401146 0.00254  0.103462945736
 H1 0.963894 0.401768 0.0037  0.103462945736
 H1 0.017749 0.510808 0.19163  0.103462945736
 H1 0.51762 0.511041 0.19111  0.103462945736
 H1 0.058609 0.306592 0.99164  0.103462945736
 H1 0.55807 0.305046 0.99197  0.103462945736
 H1 0.091596 0.42423 0.27026  0.103462945736
 H1 0.591599 0.425114 0.26989  0.103462945736
 H1 0.133212 0.230817 0.07725  0.103462945736
 H1 0.632763 0.229872 0.07773  0.103462945736
 H1 0.382601 0.223424 0.92358  0.103462945736
 H1 0.881792 0.224519 0.9233  0.103462945736
 H1 0.342477 0.427026 0.73495  0.103462945736
 H1 0.84211 0.427299 0.73402  0.103462945736
 H1 0.308067 0.296768 0.  0.103462945736
 H1 0.807237 0.298523 0.  0.103462945736
 H1 0.268757 0.511222 0.81423  0.103462945736
 H1 0.768271 0.511938 0.81275  0.103462945736
 H1 0.207511 0.497746 0.9321  0.103462945736
 H1 0.70685 0.49925 0.93058  0.103462945736
 H1 0.217741 0.395601 0.  0.103462945736
 H1 0.716988 0.397522 0.  0.103462945736
 H1 0.209234 0.989037 0.57067  0.103462945736
 H1 0.709147 0.989349 0.57025  0.103462945736
 H1 0.213384 0.098412 0.50257  0.103462945736
 H1 0.713246 0.098895 0.50229  0.103462945736
 H1 0.266323 0.990396 0.69229  0.103462945736
 H1 0.765976 0.991035 0.69210  0.103462945736
 H1 0.307595 0.194018 0.49145  0.103462945736
 H1 0.807581 0.194345 0.49124  0.103462945736
 H1 0.340075 0.076603 0.77079  0.103462945736
 H1 0.839774 0.077035 0.77068  0.103462945736
 H1 0.382165 0.269208 0.57695  0.103462945736
 H1 0.882153 0.269423 0.57687  0.103462945736
 H1 0.118183 0.77558 0.07672  0.103462945736
 H1 0.617397 0.777096 0.07604  0.103462945736
 H1 0.158227 0.572746 0.26587  0.103462945736
 H1 0.657842 0.57363 0.26459  0.103462945736
 H1 0.19257 0.70161 0.99032  0.103462945736
 H1 0.691788 0.703634 0.98923  0.103462945736
 H1 0.23191 0.488138 0.18681  0.103462945736
 H1 0.731445 0.48936 0.18506  0.103462945736
 H1 0.293076 0.500759 0.0687  0.103462945736
 H1 0.79255 0.503011 0.06705  0.103462945736
 H1 0.282972 0.602822 0.99553  0.103462945736
 H1 0.782076 0.604868 0.99371  0.103462945736
 H1 0.290535 0.010299 0.4302  0.103462945736
 H1 0.790518 0.011266 0.42998  0.103462945736
 H1 0.286238 0.900862 0.49830  0.103462945736
 H1 0.786335 0.901673 0.49788  0.103462945736
 H1 0.233855 0.0 0.30835  0.103462945736
 H1 0.73366 0.0 0.30817  0.103462945736
 H1 0.191687 0.806016 0.50929  0.103462945736
 H1 0.692124 0.805946 0.50857  0.103462945736
 H1 0.160114 0.922834 0.22959  0.103462945736
 H1 0.660047 0.92403 0.22929  0.103462945736
 H1 0.117207 0.730973 0.42344  0.103462945736
 H1 0.617726 0.730854 0.42269  0.103462945736
 C1 0.266859 0.661109 0.62651  0.68491627907
 C1 0.766855 0.661248 0.62651  0.68491627907
 C2 0.256713 0.574746 0.56461  -0.0447049709302
 C2 0.756778 0.57482 0.56462  -0.0447049709302
 C3 0.206857 0.56315 0.52363  0.18496377907
 C3 0.706927 0.563202 0.52363  0.18496377907
 C3 0.200529 0.491516 0.46035  0.18496377907
 C3 0.700592 0.49157 0.46036  0.18496377907
 C3 0.263455 0.975219 0.07965  0.18496377907
 C3 0.762101 0.976894 0.07936  0.18496377907
 C3 0.271863 0.901016 0.01869  0.18496377907
 C3 0.771138 0.903384 0.01824  0.18496377907
 C2 0.259318 0.92287 0.93780  -0.0447049709302
 C2 0.758433 0.924783 0.93739  -0.0447049709302
 C1 0.269573 0.839738 0.87380  0.68491627907
 C1 0.769156 0.841171 0.87368  0.68491627907
 C4 0.392537 0.787841 0.59707  0.17402127907
 C4 0.892026 0.788699 0.59722  0.17402127907
 C4 0.414384 0.900483 0.70267  0.17402127907
 C4 0.914182 0.900962 0.70294  0.17402127907
 C5 0.43379 0.829504 0.54947  -0.21979372093
 C5 0.933306 0.830148 0.54959  -0.21979372093
 C5 0.456036 0.946942 0.65832  -0.21979372093
 C5 0.955897 0.947173 0.65855  -0.21979372093
 C2 0.46686 0.910956 0.58007  -0.0447049709302
 C2 0.966617 0.91117 0.5802  -0.0447049709302
 C6 0.011401 0.958084 0.52985  -0.16602372093
 C6 0.511434 0.958415 0.52955  -0.16602372093
 C6 0.012684 0.535632 0.96598  -0.16602372093
 C6 0.512629 0.536414 0.96681  -0.16602372093
 C2 0.468655 0.585354 0.91530  -0.0447049709302
 C2 0.968563 0.584659 0.91475  -0.0447049709302
 C5 0.458618 0.552254 0.83600  -0.21979372093
 C5 0.958462 0.552137 0.83534  -0.21979372093
 C5 0.435093 0.665208 0.94679  -0.21979372093
 C5 0.934994 0.66422 0.94663  -0.21979372093
 C4 0.416805 0.599524 0.79169  0.17402127907
 C4 0.916609 0.599723 0.79130  0.17402127907
 C4 0.393725 0.70773 0.89927  0.17402127907
 C4 0.893573 0.707093 0.899  0.17402127907
 C1 0.233093 0.338744 0.37351  0.68491627907
 C1 0.733103 0.33891 0.37348  0.68491627907
 C2 0.243188 0.425177 0.43539  -0.0447049709302
 C2 0.743261 0.425268 0.43538  -0.0447049709302
 C3 0.293041 0.436798 0.47637  0.18496377907
 C3 0.793116 0.436863 0.47637  0.18496377907
 C3 0.299378 0.508434 0.53964  0.18496377907
 C3 0.799439 0.508488 0.53966  0.18496377907
 C3 0.237898 0.023114 0.92064  0.18496377907
 C3 0.736543 0.02479 0.92035  0.18496377907
 C3 0.228867 0.096626 0.98176  0.18496377907
 C3 0.728126 0.098983 0.98131  0.18496377907
 C2 0.241581 0.075237 0.06261  -0.0447049709302
 C2 0.740682 0.077136 0.06220  -0.0447049709302
 C1 0.230871 0.158874 0.12631  0.68491627907
 C1 0.73043 0.160275 0.12619  0.68491627907
 C4 0.107902 0.210049 0.40259  0.17402127907
 C4 0.607269 0.211599 0.40246  0.17402127907
 C4 0.085677 0.099065 0.29612  0.17402127907
 C4 0.585476 0.099642 0.29639  0.17402127907
 C5 0.066606 0.168102 0.44993  -0.21979372093
 C5 0.565919 0.169779 0.44977  -0.21979372093
 C5 0.043927 0.052438 0.34018  -0.21979372093
 C5 0.543724 0.053039 0.34046  -0.21979372093
 C2 0.033234 0.087523 0.41870  -0.0447049709302
 C2 0.532831 0.088601 0.41879  -0.0447049709302
 C6 0.488189 0.040976 0.4690  -0.16602372093
 C6 0.98842 0.040208 0.46885  -0.16602372093
 C6 0.487723 0.464028 0.03258  -0.16602372093
 C6 0.987954 0.464744 0.03282  -0.16602372093
 C2 0.031972 0.41578 0.0842  -0.0447049709302
 C2 0.531655 0.415093 0.08418  -0.0447049709302
 C5 0.041911 0.44844 0.16369  -0.21979372093
 C5 0.541732 0.448421 0.16340  -0.21979372093
 C5 0.06552 0.335979 0.05270  -0.21979372093
 C5 0.565097 0.334932 0.05287  -0.21979372093
 C4 0.083564 0.400718 0.20806  0.17402127907
 C4 0.583456 0.401058 0.20784  0.17402127907
 C4 0.106731 0.292956 0.10026  0.17402127907
 C4 0.606371 0.292299 0.10051  0.17402127907
 C1 0.482477 0.162087 0.87369  0.68491627907
 C1 0.980971 0.16255 0.87453  0.68491627907
 C2 0.492457 0.075107 0.93555  -0.0447049709302
 C2 0.99194 0.076248 0.93644  -0.0447049709302
 C3 0.042204 0.065162 0.9762  0.18496377907
 C3 0.54221 0.063206 0.97661  0.18496377907
 C3 0.049793 0.991704 0.03825  0.18496377907
 C3 0.5489 0.991223 0.0398  0.18496377907
 C3 0.487953 0.476665 0.41970  0.18496377907
 C3 0.987936 0.475466 0.41986  0.18496377907
 C3 0.478494 0.402666 0.48045  0.18496377907
 C3 0.979506 0.400537 0.48045  0.18496377907
 C2 0.490328 0.423366 0.56170  -0.0447049709302
 C2 0.991073 0.4218 0.56179  -0.0447049709302
 C1 0.479311 0.339496 0.62512  0.68491627907
 C1 0.97987 0.338456 0.62572  0.68491627907
 C4 0.35647 0.287402 0.90191  0.17402127907
 C4 0.85575 0.288464 0.90140  0.17402127907
 C4 0.334103 0.400815 0.796  0.17402127907
 C4 0.833616 0.401373 0.79549  0.17402127907
 C5 0.315374 0.328798 0.94981  -0.21979372093
 C5 0.814621 0.330214 0.94906  -0.21979372093
 C5 0.292552 0.44698 0.84106  -0.21979372093
 C5 0.791999 0.447818 0.83987  -0.21979372093
 C2 0.282159 0.410503 0.91940  -0.0447049709302
 C2 0.781486 0.411802 0.91829  -0.0447049709302
 C6 0.238158 0.458332 0.97061  -0.16602372093
 C6 0.737463 0.46001 0.96924  -0.16602372093
 C6 0.237152 0.035817 0.53305  -0.16602372093
 C6 0.737049 0.036318 0.53273  -0.16602372093
 C2 0.280803 0.085156 0.58456  -0.0447049709302
 C2 0.780637 0.085658 0.58435  -0.0447049709302
 C5 0.290548 0.052569 0.6641  -0.21979372093
 C5 0.790274 0.053119 0.6640  -0.21979372093
 C5 0.314399 0.164699 0.55269  -0.21979372093
 C5 0.81432 0.165078 0.55250  -0.21979372093
 C4 0.332136 0.100052 0.70846  0.17402127907
 C4 0.831876 0.100486 0.70833  0.17402127907
 C4 0.355558 0.207419 0.60018  0.17402127907
 C4 0.855479 0.207697 0.60005  0.17402127907
 C1 0.019005 0.837222 0.12534  0.68491627907
 C1 0.516847 0.837336 0.12635  0.68491627907
 C2 0.008053 0.923619 0.06351  -0.0447049709302
 C2 0.506438 0.9245 0.06475  -0.0447049709302
 C3 0.456563 0.936501 0.02375  0.18496377907
 C3 0.95778 0.934755 0.02369  0.18496377907
 C3 0.450056 0.008438 0.96045  0.18496377907
 C3 0.950191 0.008214 0.96172  0.18496377907
 C3 0.011875 0.522528 0.57916  0.18496377907
 C3 0.512009 0.52326 0.57915  0.18496377907
 C3 0.02044 0.59693 0.51825  0.18496377907
 C3 0.52149 0.597084 0.51815  0.18496377907
 C2 0.008681 0.5759 0.43716  -0.0447049709302
 C2 0.509649 0.576298 0.43700  -0.0447049709302
 C1 0.019389 0.659889 0.37355  0.68491627907
 C1 0.520984 0.659785 0.37348  0.68491627907
 C4 0.144261 0.711625 0.09856  0.17402127907
 C4 0.643568 0.713117 0.09762  0.17402127907
 C4 0.166598 0.598708 0.20437  0.17402127907
 C4 0.666129 0.599791 0.20311  0.17402127907
 C5 0.185293 0.669881 0.05072  -0.21979372093
 C5 0.684571 0.671662 0.04957  -0.21979372093
 C5 0.208126 0.552265 0.15980  -0.21979372093
 C5 0.707597 0.553586 0.15831  -0.21979372093
 C2 0.218491 0.588286 0.08134  -0.0447049709302
 C2 0.71785 0.590011 0.07991  -0.0447049709302
 C6 0.262475 0.540201 0.03023  -0.16602372093
 C6 0.76179 0.542179 0.02861  -0.16602372093
 C6 0.262547 0.963557 0.46780  -0.16602372093
 C6 0.762575 0.96431 0.46743  -0.16602372093
 C2 0.218914 0.914397 0.41616  -0.0447049709302
 C2 0.719024 0.915061 0.41571  -0.0447049709302
 C5 0.20944 0.946815 0.33643  -0.21979372093
 C5 0.709397 0.947844 0.33611  -0.21979372093
 C5 0.185078 0.835203 0.44798  -0.21979372093
 C5 0.685403 0.835412 0.44736  -0.21979372093
 C4 0.167878 0.899499 0.29200  0.17402127907
 C4 0.667887 0.900445 0.29162  0.17402127907
 C4 0.143974 0.792589 0.40032  0.17402127907
 C4 0.644333 0.792771 0.3996  0.17402127907
 N1 0.382616 0.822102 0.67292  -0.36148372093
 N1 0.882271 0.822814 0.67317  -0.36148372093
 N1 0.384318 0.675826 0.82256  -0.36148372093
 N1 0.884135 0.675789 0.82255  -0.36148372093
 N1 0.117629 0.176803 0.32641  -0.36148372093
 N1 0.617263 0.177744 0.32652  -0.36148372093
 N1 0.115998 0.324359 0.17713  -0.36148372093
 N1 0.615813 0.324413 0.17716  -0.36148372093
 N1 0.366055 0.322274 0.82601  -0.36148372093
 N1 0.865485 0.322942 0.82545  -0.36148372093
 N1 0.364661 0.176021 0.67721  -0.36148372093
 N1 0.864497 0.176302 0.67709  -0.36148372093
 N1 0.13467 0.677152 0.17456  -0.36148372093
 N1 0.634137 0.678317 0.17357  -0.36148372093
 N1 0.135146 0.823825 0.32319  -0.36148372093
 N1 0.635337 0.824375 0.3226  -0.36148372093
 O1 0.293812 0.630432 0.69011  -0.58629872093
 O1 0.793783 0.630686 0.69016  -0.58629872093
 O2 0.252289 0.753243 0.61107  -0.56235372093
 O2 0.752234 0.753337 0.61102  -0.56235372093
 O1 0.301008 0.870805 0.81540  -0.58629872093
 O1 0.800801 0.87179 0.8154  -0.58629872093
 O2 0.250112 0.749653 0.88190  -0.56235372093
 O2 0.749966 0.750865 0.88207  -0.56235372093
 O1 0.20617 0.369317 0.30986  -0.58629872093
 O1 0.706172 0.369602 0.30987  -0.58629872093
 O2 0.247696 0.246644 0.38900  -0.56235372093
 O2 0.747648 0.246763 0.38894  -0.56235372093
 O1 0.199224 0.128272 0.18458  -0.58629872093
 O1 0.698983 0.129211 0.18457  -0.58629872093
 O2 0.250061 0.249172 0.11789  -0.56235372093
 O2 0.749897 0.250353 0.11809  -0.56235372093
 O1 0.455476 0.132054 0.81012  -0.58629872093
 O1 0.95383 0.131361 0.81142  -0.58629872093
 O2 0.497342 0.253829 0.8891  -0.56235372093
 O2 0.995413 0.254777 0.88916  -0.56235372093
 O1 0.448718 0.370776 0.68436  -0.58629872093
 O1 0.948849 0.370592 0.68424  -0.58629872093
 O2 0.497472 0.248557 0.61559  -0.56235372093
 O2 0.998008 0.247279 0.61742  -0.56235372093
 O1 0.046175 0.868286 0.18847  -0.58629872093
 O1 0.54411 0.867327 0.18968  -0.58629872093
 O2 0.004523 0.74504 0.11069  -0.56235372093
 O2 0.502188 0.745521 0.11082  -0.56235372093
 O1 0.051242 0.629275 0.31555  -0.58629872093
 O1 0.552601 0.62854 0.31543  -0.58629872093
 O2 2.1e-05 0.75006 0.38186  -0.56235372093
 O2 0.502211 0.750468 0.38178  -0.56235372093
 F1 0.162588 0.620508 0.5453  -0.12161622093
 F1 0.662667 0.620544 0.54538  -0.12161622093
 F1 0.150677 0.486014 0.4242  -0.12161622093
 F1 0.650723 0.48602 0.42429  -0.12161622093
 F1 0.277734 0.949087 0.15621  -0.12161622093
 F1 0.775455 0.949351 0.15603  -0.12161622093
 F1 0.294077 0.806126 0.03858  -0.12161622093
 F1 0.794131 0.809551 0.03848  -0.12161622093
 F1 0.337299 0.379456 0.45463  -0.12161622093
 F1 0.837388 0.379494 0.45464  -0.12161622093
 F1 0.349255 0.513982 0.57571  -0.12161622093
 F1 0.849297 0.513991 0.57577  -0.12161622093
 F1 0.22453 0.050659 0.84398  -0.12161622093
 F1 0.72225 0.05092 0.84380  -0.12161622093
 F1 0.20586 0.190456 0.96153  -0.12161622093
 F1 0.705896 0.193867 0.96143  -0.12161622093
 F1 0.085552 0.124952 0.95465  -0.12161622093
 F1 0.586075 0.120948 0.95462  -0.12161622093
 F1 0.100041 0.986076 0.07275  -0.12161622093
 F1 0.598906 0.985952 0.07563  -0.12161622093
 F1 0.474581 0.449501 0.34321  -0.12161622093
 F1 0.974542 0.449102 0.34324  -0.12161622093
 F1 0.455862 0.309407 0.45850  -0.12161622093
 F1 0.958208 0.305871 0.45851  -0.12161622093
 F1 0.412313 0.879251 0.04543  -0.12161622093
 F1 0.914424 0.875029 0.04536  -0.12161622093
 F1 0.40031 0.013938 0.92415  -0.12161622093
 F1 0.899936 0.013922 0.92727  -0.12161622093
 F1 0.02526 0.550225 0.65575  -0.12161622093
 F1 0.525341 0.550407 0.65584  -0.12161622093
 F1 0.042011 0.691632 0.5387  -0.12161622093
 F1 0.544202 0.690761 0.53866  -0.12161622093
