#======================================================================

# CRYSTAL DATA

#----------------------------------------------------------------------

data_VESTA_phase_1


_pd_phase_name                         MOF
_cell_length_a                         22.06600
_cell_length_b                         18.45900
_cell_length_c                         19.05900
_cell_angle_alpha                      108.72500
_cell_angle_beta                       89.99200
_cell_angle_gamma                      90.09900
_symmetry_space_group_name_H-M         "P 1"
_symmetry_Int_Tables_number            1

loop_
_symmetry_equiv_pos_as_xyz
   "x, y, z"

loop_
   _atom_site_label
   _atom_site_fract_x
   _atom_site_fract_y
   _atom_site_fract_z
 _atom_site_charge
 Zn1 0.410214 0.684203 0.98046  0.957717153846
 Zn1 0.909583 0.6843 0.98038  0.957717153846
 Zn1 0.410043 0.783974 0.88434  0.957717153846
 Zn1 0.909582 0.784141 0.88411  0.957717153846
 Zn1 0.339267 0.184373 0.48030  0.957717153846
 Zn1 0.840045 0.184106 0.480  0.957717153846
 Zn1 0.340983 0.284071 0.3841  0.957717153846
 Zn1 0.84018 0.28402 0.38422  0.957717153846
 Zn1 0.159933 0.815911 0.51973  0.957717153846
 Zn1 0.660713 0.815647 0.5197  0.957717153846
 Zn1 0.1598 0.715994 0.61580  0.957717153846
 Zn1 0.658994 0.71595 0.61587  0.957717153846
 Zn1 0.090399 0.315717 0.01966  0.957717153846
 Zn1 0.589768 0.315815 0.01956  0.957717153846
 Zn1 0.0904 0.215874 0.1159  0.957717153846
 Zn1 0.589943 0.21604 0.11567  0.957717153846
 H1 0.241009 0.381033 0.33538  0.113732570513
 H1 0.740609 0.381433 0.33543  0.113732570513
 H1 0.264716 0.460758 0.2371  0.113732570513
 H1 0.764651 0.460934 0.2371  0.113732570513
 H1 0.448827 0.299063 0.29386  0.113732570513
 H1 0.948553 0.300271 0.29603  0.113732570513
 H1 0.463354 0.337211 0.22083  0.113732570513
 H1 0.96301 0.336295 0.22154  0.113732570513
 H1 0.472334 0.395246 0.31430  0.113732570513
 H1 0.972141 0.396197 0.31437  0.113732570513
 H1 0.412988 0.396294 0.15276  0.113732570513
 H1 0.913297 0.396247 0.15355  0.113732570513
 H1 0.353522 0.460109 0.15465  0.113732570513
 H1 0.853648 0.459532 0.15451  0.113732570513
 H1 0.405744 0.565151 0.24874  0.113732570513
 H1 0.905209 0.565338 0.24870  0.113732570513
 H1 0.456631 0.501015 0.26930  0.113732570513
 H1 0.956408 0.501749 0.26964  0.113732570513
 H1 0.004684 0.469261 0.14617  0.113732570513
 H1 0.504821 0.468673 0.14588  0.113732570513
 H1 0.009784 0.567588 0.19677  0.113732570513
 H1 0.510247 0.56695 0.1966  0.113732570513
 H1 0.43548 0.425102 0.03204  0.113732570513
 H1 0.935341 0.425249 0.03213  0.113732570513
 H1 0.391472 0.507233 0.94192  0.113732570513
 H1 0.8914 0.507105 0.94178  0.113732570513
 H1 0.452753 0.731369 0.13713  0.113732570513
 H1 0.951724 0.731623 0.13726  0.113732570513
 H1 0.439644 0.69112 0.20939  0.113732570513
 H1 0.939111 0.691133 0.20946  0.113732570513
 H1 0.011635 0.684296 0.16763  0.113732570513
 H1 0.51227 0.683697 0.16778  0.113732570513
 H1 0.366345 0.994377 0.05527  0.113732570513
 H1 0.866147 0.99452 0.05475  0.113732570513
 H1 0.342294 0.106614 0.16720  0.113732570513
 H1 0.841572 0.106774 0.16643  0.113732570513
 H1 0.387513 0.974179 0.30786  0.113732570513
 H1 0.886363 0.974727 0.30760  0.113732570513
 H1 0.410761 0.861459 0.19578  0.113732570513
 H1 0.909952 0.861902 0.19575  0.113732570513
 H1 0.105041 0.784028 0.84683  0.113732570513
 H1 0.604649 0.784856 0.84762  0.113732570513
 H1 0.217764 0.776514 0.84353  0.113732570513
 H1 0.71745 0.777437 0.844  0.113732570513
 H1 0.216327 0.692806 0.02908  0.113732570513
 H1 0.716385 0.692522 0.02886  0.113732570513
 H1 0.102413 0.697319 0.03059  0.113732570513
 H1 0.602438 0.696964 0.0306  0.113732570513
 H1 0.009227 0.881355 0.8350  0.113732570513
 H1 0.509633 0.881347 0.83529  0.113732570513
 H1 0.485698 0.960835 0.73699  0.113732570513
 H1 0.985341 0.961106 0.7369  0.113732570513
 H1 0.301631 0.799386 0.79546  0.113732570513
 H1 0.801063 0.799865 0.79509  0.113732570513
 H1 0.287261 0.835545 0.72104  0.113732570513
 H1 0.786454 0.837298 0.72161  0.113732570513
 H1 0.278127 0.895244 0.81388  0.113732570513
 H1 0.777792 0.895988 0.81492  0.113732570513
 H1 0.336803 0.896001 0.65341  0.113732570513
 H1 0.836738 0.896504 0.65325  0.113732570513
 H1 0.396644 0.95926 0.65433  0.113732570513
 H1 0.896345 0.960245 0.65476  0.113732570513
 H1 0.345545 0.064999 0.74870  0.113732570513
 H1 0.844514 0.065465 0.7488  0.113732570513
 H1 0.294317 0.001399 0.76988  0.113732570513
 H1 0.793456 0.001436 0.76959  0.113732570513
 H1 0.245545 0.969019 0.64664  0.113732570513
 H1 0.745201 0.968747 0.64613  0.113732570513
 H1 0.240715 0.067259 0.69749  0.113732570513
 H1 0.739979 0.067041 0.69668  0.113732570513
 H1 0.314746 0.925392 0.53246  0.113732570513
 H1 0.814217 0.925036 0.53213  0.113732570513
 H1 0.358011 0.007584 0.44192  0.113732570513
 H1 0.858252 0.006984 0.4417  0.113732570513
 H1 0.297531 0.231585 0.63750  0.113732570513
 H1 0.798082 0.231327 0.63714  0.113732570513
 H1 0.310863 0.19133 0.70969  0.113732570513
 H1 0.811043 0.191003 0.70936  0.113732570513
 H1 0.238116 0.183707 0.66833  0.113732570513
 H1 0.738384 0.183759 0.66783  0.113732570513
 H1 0.383346 0.494523 0.55526  0.113732570513
 H1 0.884327 0.49438 0.55493  0.113732570513
 H1 0.407854 0.606717 0.66719  0.113732570513
 H1 0.908348 0.606837 0.66682  0.113732570513
 H1 0.361904 0.474373 0.8078  0.113732570513
 H1 0.863028 0.47439 0.80760  0.113732570513
 H1 0.338273 0.361691 0.69578  0.113732570513
 H1 0.839776 0.361476 0.69555  0.113732570513
 H1 0.145089 0.284133 0.34630  0.113732570513
 H1 0.645575 0.285079 0.3484  0.113732570513
 H1 0.032312 0.276628 0.34311  0.113732570513
 H1 0.532726 0.27819 0.34521  0.113732570513
 H1 0.033574 0.192683 0.52852  0.113732570513
 H1 0.53338 0.192967 0.52977  0.113732570513
 H1 0.147512 0.197115 0.52989  0.113732570513
 H1 0.647343 0.19676 0.531  0.113732570513
 H1 0.490353 0.11867 0.16472  0.113732570513
 H1 0.990752 0.118676 0.16497  0.113732570513
 H1 0.014634 0.038917 0.26309  0.113732570513
 H1 0.51428 0.039174 0.26301  0.113732570513
 H1 0.198917 0.200157 0.2049  0.113732570513
 H1 0.698358 0.200614 0.20456  0.113732570513
 H1 0.213527 0.162711 0.27842  0.113732570513
 H1 0.712724 0.164454 0.27897  0.113732570513
 H1 0.222186 0.104032 0.18511  0.113732570513
 H1 0.721857 0.104755 0.18613  0.113732570513
 H1 0.163235 0.103507 0.3467  0.113732570513
 H1 0.663167 0.104003 0.34661  0.113732570513
 H1 0.103629 0.039763 0.34527  0.113732570513
 H1 0.603328 0.040735 0.34568  0.113732570513
 H1 0.155464 0.934548 0.25121  0.113732570513
 H1 0.654445 0.935004 0.25132  0.113732570513
 H1 0.206516 0.998577 0.23043  0.113732570513
 H1 0.705663 0.998609 0.23014  0.113732570513
 H1 0.25478 0.031273 0.35389  0.113732570513
 H1 0.754436 0.031009 0.35338  0.113732570513
 H1 0.260003 0.932979 0.30334  0.113732570513
 H1 0.759279 0.932769 0.30253  0.113732570513
 H1 0.185787 0.074986 0.46790  0.113732570513
 H1 0.68526 0.07463 0.46757  0.113732570513
 H1 0.141754 0.993041 0.55829  0.113732570513
 H1 0.641986 0.992441 0.55811  0.113732570513
 H1 0.201909 0.768693 0.36289  0.113732570513
 H1 0.702465 0.768437 0.36253  0.113732570513
 H1 0.188939 0.809011 0.29067  0.113732570513
 H1 0.689138 0.808685 0.29033  0.113732570513
 H1 0.261601 0.816265 0.33220  0.113732570513
 H1 0.761881 0.816319 0.33171  0.113732570513
 H1 0.11565 0.505635 0.44509  0.113732570513
 H1 0.616673 0.50546 0.44475  0.113732570513
 H1 0.091634 0.393177 0.33320  0.113732570513
 H1 0.592175 0.393273 0.33281  0.113732570513
 H1 0.136959 0.525627 0.1924  0.113732570513
 H1 0.638087 0.525659 0.19218  0.113732570513
 H1 0.160203 0.638542 0.30448  0.113732570513
 H1 0.661704 0.638336 0.30427  0.113732570513
 H1 0.354403 0.714925 0.65154  0.113732570513
 H1 0.854885 0.715892 0.65373  0.113732570513
 H1 0.467249 0.721851 0.65482  0.113732570513
 H1 0.967663 0.723395 0.65692  0.113732570513
 H1 0.466592 0.807085 0.47027  0.113732570513
 H1 0.966404 0.807329 0.47150  0.113732570513
 H1 0.35263 0.803255 0.4688  0.113732570513
 H1 0.852465 0.802892 0.47013  0.113732570513
 H1 0.259376 0.618593 0.66460  0.113732570513
 H1 0.758963 0.618974 0.66463  0.113732570513
 H1 0.235335 0.539089 0.7629  0.113732570513
 H1 0.735251 0.539244 0.76289  0.113732570513
 H1 0.051429 0.699736 0.70398  0.113732570513
 H1 0.551151 0.700962 0.70615  0.113732570513
 H1 0.036972 0.663719 0.77848  0.113732570513
 H1 0.536616 0.662817 0.77918  0.113732570513
 H1 0.027843 0.60381 0.68565  0.113732570513
 H1 0.527642 0.60478 0.68571  0.113732570513
 H1 0.086686 0.603765 0.8464  0.113732570513
 H1 0.586979 0.603727 0.84725  0.113732570513
 H1 0.146335 0.540481 0.84551  0.113732570513
 H1 0.646448 0.539919 0.84537  0.113732570513
 H1 0.094778 0.434675 0.75132  0.113732570513
 H1 0.594234 0.434868 0.75127  0.113732570513
 H1 0.043578 0.498261 0.73038  0.113732570513
 H1 0.54334 0.498997 0.73072  0.113732570513
 H1 0.495155 0.531338 0.85414  0.113732570513
 H1 0.995297 0.530745 0.85385  0.113732570513
 H1 0.489733 0.433059 0.80341  0.113732570513
 H1 0.990204 0.432417 0.80324  0.113732570513
 H1 0.064631 0.574765 0.96789  0.113732570513
 H1 0.564496 0.574915 0.96798  0.113732570513
 H1 0.108566 0.492918 0.05825  0.113732570513
 H1 0.6085 0.49279 0.05810  0.113732570513
 H1 0.048264 0.26839 0.86278  0.113732570513
 H1 0.547233 0.268648 0.86289  0.113732570513
 H1 0.060877 0.308872 0.7905  0.113732570513
 H1 0.560331 0.308896 0.79063  0.113732570513
 H1 0.487709 0.316315 0.83225  0.113732570513
 H1 0.988352 0.315709 0.83240  0.113732570513
 H1 0.133843 0.005484 0.94527  0.113732570513
 H1 0.633634 0.005642 0.94475  0.113732570513
 H1 0.158416 0.893238 0.83359  0.113732570513
 H1 0.657687 0.893405 0.83282  0.113732570513
 H1 0.113624 0.025302 0.69244  0.113732570513
 H1 0.612475 0.025843 0.69216  0.113732570513
 H1 0.090036 0.138119 0.80430  0.113732570513
 H1 0.589225 0.138563 0.80424  0.113732570513
 H1 0.395332 0.215157 0.15241  0.113732570513
 H1 0.89494 0.215997 0.15319  0.113732570513
 H1 0.28253 0.222576 0.15593  0.113732570513
 H1 0.782217 0.223509 0.15649  0.113732570513
 H1 0.283599 0.307495 0.97117  0.113732570513
 H1 0.783661 0.307209 0.97093  0.113732570513
 H1 0.397545 0.303054 0.96941  0.113732570513
 H1 0.897576 0.302699 0.96943  0.113732570513
 C1 0.282916 0.387943 0.30865  -0.0701278461538
 C1 0.782605 0.388255 0.30883  -0.0701278461538
 C1 0.29421 0.427787 0.26066  -0.0701278461538
 C1 0.794061 0.428023 0.26082  -0.0701278461538
 C2 0.37972 0.372634 0.2803  0.336402153846
 C2 0.879479 0.372954 0.28090  0.336402153846
 C3 0.444284 0.349906 0.27659  -0.431197846154
 C3 0.944042 0.350306 0.27749  -0.431197846154
 C4 0.387719 0.445042 0.18934  -0.0195528461538
 C4 0.88775 0.445011 0.18966  -0.0195528461538
 C5 0.431197 0.511793 0.22404  -0.201937846154
 C5 0.930911 0.512137 0.22422  -0.201937846154
 C4 0.478263 0.521323 0.16851  -0.0195528461538
 C4 0.977923 0.52178 0.16868  -0.0195528461538
 C1 0.43131 0.485879 0.04076  -0.0701278461538
 C1 0.931111 0.486012 0.04080  -0.0701278461538
 C1 0.410731 0.526673 0.99708  -0.0701278461538
 C1 0.910538 0.526685 0.99700  -0.0701278461538
 C2 0.444734 0.610709 0.09926  0.336402153846
 C2 0.944227 0.61091 0.09924  0.336402153846
 C3 0.463297 0.683014 0.15660  -0.431197846154
 C3 0.962601 0.683289 0.15661  -0.431197846154
 C6 0.402238 0.853069 0.05104  0.681519653846
 C6 0.902003 0.853206 0.05104  0.681519653846
 C7 0.389755 0.920976 0.1186  -0.120135346154
 C7 0.889284 0.921268 0.11844  -0.120135346154
 C8 0.370607 0.990426 0.11086  -0.0702290961538
 C8 0.870165 0.990632 0.11039  -0.0702290961538
 C8 0.357226 0.052691 0.17304  -0.0702290961538
 C8 0.856504 0.052928 0.17245  -0.0702290961538
 C7 0.362845 0.047188 0.24448  -0.120135346154
 C7 0.86186 0.047526 0.24395  -0.120135346154
 C6 0.348414 0.11471 0.31167  0.681519653846
 C6 0.847255 0.115006 0.31111  0.681519653846
 C8 0.382579 0.977889 0.25224  -0.0702290961538
 C8 0.881613 0.97832 0.25191  -0.0702290961538
 C8 0.39578 0.91549 0.19009  -0.0702290961538
 C8 0.895019 0.915888 0.18991  -0.0702290961538
 C6 0.028534 0.737906 0.93563  0.681519653846
 C6 0.528552 0.737614 0.93601  0.681519653846
 C7 0.096634 0.74033 0.93844  -0.120135346154
 C7 0.596555 0.74055 0.93885  -0.120135346154
 C8 0.129519 0.764078 0.88671  -0.0702290961538
 C8 0.62925 0.764724 0.88729  -0.0702290961538
 C8 0.192522 0.760218 0.88514  -0.0702290961538
 C8 0.692236 0.760891 0.88557  -0.0702290961538
 C7 0.224071 0.734216 0.9362  -0.120135346154
 C7 0.723828 0.734498 0.93640  -0.120135346154
 C6 0.292243 0.730238 0.93489  0.681519653846
 C6 0.791924 0.730375 0.93469  0.681519653846
 C8 0.191257 0.712284 0.98928  -0.0702290961538
 C8 0.691199 0.712254 0.98932  -0.0702290961538
 C8 0.12822 0.714905 0.99004  -0.0702290961538
 C8 0.628191 0.714846 0.99022  -0.0702290961538
 C1 0.467659 0.888022 0.80862  -0.0701278461538
 C1 0.96722 0.888302 0.8085  -0.0701278461538
 C1 0.456256 0.92778 0.76062  -0.0701278461538
 C1 0.95585 0.928172 0.76065  -0.0701278461538
 C2 0.370794 0.872362 0.78054  0.336402153846
 C2 0.870284 0.873091 0.78076  0.336402153846
 C3 0.306217 0.849487 0.77700  -0.431197846154
 C3 0.80565 0.850438 0.77737  -0.431197846154
 C4 0.36256 0.944685 0.68952  -0.0195528461538
 C4 0.862189 0.945314 0.68965  -0.0195528461538
 C5 0.31965 0.011815 0.72433  -0.201937846154
 C5 0.818916 0.012081 0.72425  -0.201937846154
 C4 0.272409 0.021539 0.66911  -0.0195528461538
 C4 0.771869 0.021421 0.66865  -0.0195528461538
 C1 0.31887 0.986185 0.54113  -0.0701278461538
 C1 0.818582 0.985802 0.54078  -0.0701278461538
 C1 0.339021 0.026991 0.497  -0.0701278461538
 C1 0.839158 0.026519 0.49696  -0.0701278461538
 C2 0.305453 0.110951 0.59956  0.336402153846
 C2 0.805606 0.110647 0.59922  0.336402153846
 C3 0.287058 0.183186 0.65699  -0.431197846154
 C3 0.787354 0.18298 0.6566  -0.431197846154
 C6 0.347117 0.35316 0.55105  0.681519653846
 C6 0.848391 0.35301 0.55084  0.681519653846
 C7 0.359615 0.421151 0.61867  -0.120135346154
 C7 0.860874 0.420999 0.6184  -0.120135346154
 C8 0.379019 0.490583 0.61085  -0.0702290961538
 C8 0.880042 0.490488 0.61054  -0.0702290961538
 C8 0.392664 0.552834 0.67304  -0.0702290961538
 C8 0.893408 0.552879 0.67270  -0.0702290961538
 C7 0.387024 0.547313 0.74447  -0.120135346154
 C7 0.887762 0.547393 0.74414  -0.120135346154
 C6 0.401891 0.614662 0.8117  0.681519653846
 C6 0.902171 0.614955 0.81135  0.681519653846
 C8 0.366903 0.478058 0.75222  -0.0702290961538
 C8 0.867984 0.478034 0.75195  -0.0702290961538
 C8 0.353472 0.415693 0.69007  -0.0702290961538
 C8 0.854792 0.415543 0.68983  -0.0702290961538
 C6 0.221349 0.237339 0.43486  0.681519653846
 C6 0.721542 0.237508 0.4365  0.681519653846
 C7 0.153328 0.24025 0.43780  -0.120135346154
 C7 0.653502 0.24053 0.43954  -0.120135346154
 C8 0.120557 0.264167 0.38618  -0.0702290961538
 C8 0.620886 0.264947 0.38813  -0.0702290961538
 C8 0.057549 0.260319 0.38467  -0.0702290961538
 C8 0.557879 0.261423 0.38656  -0.0702290961538
 C7 0.025988 0.234185 0.43576  -0.120135346154
 C7 0.526102 0.235161 0.43743  -0.120135346154
 C6 0.457942 0.231436 0.43563  0.681519653846
 C6 0.957847 0.229978 0.43431  0.681519653846
 C8 0.058703 0.212233 0.48876  -0.0702290961538
 C8 0.558643 0.212626 0.49017  -0.0702290961538
 C8 0.121722 0.214808 0.48943  -0.0702290961538
 C8 0.621695 0.214867 0.49089  -0.0702290961538
 C1 0.032759 0.111724 0.19147  -0.0701278461538
 C1 0.532325 0.111991 0.19139  -0.0701278461538
 C1 0.044127 0.071852 0.23938  -0.0701278461538
 C1 0.543725 0.072229 0.23939  -0.0701278461538
 C2 0.129695 0.126929 0.21927  0.336402153846
 C2 0.62919 0.127643 0.21947  0.336402153846
 C3 0.194329 0.14958 0.22266  -0.431197846154
 C3 0.693769 0.150514 0.22302  -0.431197846154
 C4 0.137786 0.054698 0.31038  -0.0195528461538
 C4 0.637417 0.055318 0.31049  -0.0195528461538
 C5 0.181061 0.987933 0.27578  -0.201937846154
 C5 0.680334 0.988194 0.2756  -0.201937846154
 C4 0.228114 0.978597 0.33137  -0.0195528461538
 C4 0.727578 0.978483 0.33091  -0.0195528461538
 C1 0.181414 0.014219 0.45925  -0.0701278461538
 C1 0.681129 0.013837 0.45890  -0.0701278461538
 C1 0.160842 0.973505 0.50307  -0.0701278461538
 C1 0.660974 0.973033 0.50283  -0.0701278461538
 C2 0.194381 0.889373 0.40081  0.336402153846
 C2 0.694538 0.88907 0.40046  0.336402153846
 C3 0.212631 0.817039 0.34342  -0.431197846154
 C3 0.712938 0.816835 0.34304  -0.431197846154
 C6 0.151581 0.647007 0.44919  0.681519653846
 C6 0.652857 0.646852 0.44898  0.681519653846
 C7 0.139104 0.579017 0.38160  -0.120135346154
 C7 0.640374 0.578859 0.38136  -0.120135346154
 C8 0.119934 0.509529 0.38948  -0.0702290961538
 C8 0.620988 0.509415 0.38917  -0.0702290961538
 C8 0.106575 0.447136 0.32732  -0.0702290961538
 C8 0.607346 0.447169 0.32698  -0.0702290961538
 C7 0.11222 0.452624 0.25588  -0.120135346154
 C7 0.612982 0.4527 0.25555  -0.120135346154
 C6 0.097815 0.385061 0.18867  0.681519653846
 C6 0.598104 0.385358 0.18829  0.681519653846
 C8 0.132 0.521982 0.24807  -0.0702290961538
 C8 0.633084 0.521966 0.24781  -0.0702290961538
 C8 0.145187 0.584474 0.31019  -0.0702290961538
 C8 0.646512 0.584326 0.30996  -0.0702290961538
 C6 0.278433 0.762492 0.56344  0.681519653846
 C6 0.778629 0.762678 0.56515  0.681519653846
 C7 0.346474 0.759478 0.5604  -0.120135346154
 C7 0.846649 0.75976 0.56222  -0.120135346154
 C8 0.379091 0.735067 0.61189  -0.0702290961538
 C8 0.879419 0.735857 0.61385  -0.0702290961538
 C8 0.442098 0.738608 0.61347  -0.0702290961538
 C8 0.942427 0.7397 0.61536  -0.0702290961538
 C7 0.473873 0.764888 0.56261  -0.120135346154
 C7 0.973989 0.765831 0.56426  -0.120135346154
 C6 0.04213 0.770045 0.56572  0.681519653846
 C6 0.542034 0.768609 0.56440  0.681519653846
 C8 0.441331 0.787414 0.50986  -0.0702290961538
 C8 0.941274 0.78778 0.51126  -0.0702290961538
 C8 0.378279 0.785152 0.50913  -0.0702290961538
 C8 0.878256 0.785205 0.5105  -0.0702290961538
 C1 0.21738 0.611768 0.69120  -0.0701278461538
 C1 0.717056 0.612067 0.69136  -0.0701278461538
 C1 0.205924 0.571998 0.73921  -0.0701278461538
 C1 0.70576 0.572224 0.7393  -0.0701278461538
 C2 0.120505 0.62706 0.71912  0.336402153846
 C2 0.620254 0.62739 0.71969  0.336402153846
 C3 0.055941 0.649704 0.7225  -0.431197846154
 C3 0.555691 0.65012 0.72342  -0.431197846154
 C4 0.112234 0.555002 0.81036  -0.0195528461538
 C4 0.612251 0.554979 0.81067  -0.0195528461538
 C5 0.069075 0.487875 0.77580  -0.201937846154
 C5 0.568777 0.488223 0.77598  -0.201937846154
 C4 0.022061 0.478228 0.83134  -0.0195528461538
 C4 0.521715 0.478689 0.83151  -0.0195528461538
 C1 0.068864 0.514002 0.95922  -0.0701278461538
 C1 0.568668 0.514139 0.95926  -0.0701278461538
 C1 0.089434 0.473334 0.00303  -0.0701278461538
 C1 0.589244 0.473347 0.0029  -0.0701278461538
 C2 0.055756 0.389103 0.90078  0.336402153846
 C2 0.555246 0.389307 0.90076  0.336402153846
 C3 0.037386 0.31672 0.84342  -0.431197846154
 C3 0.536684 0.317001 0.84342  -0.431197846154
 C6 0.097982 0.146802 0.94900  0.681519653846
 C6 0.597741 0.146949 0.94898  0.681519653846
 C7 0.110703 0.078744 0.88160  -0.120135346154
 C7 0.610223 0.079042 0.8813  -0.120135346154
 C8 0.129824 0.009378 0.88964  -0.0702290961538
 C8 0.629375 0.009594 0.88916  -0.0702290961538
 C8 0.143483 0.947086 0.82757  -0.0702290961538
 C8 0.642752 0.947327 0.82698  -0.0702290961538
 C7 0.138126 0.952493 0.7560  -0.120135346154
 C7 0.637138 0.952832 0.75554  -0.120135346154
 C6 0.152727 0.885015 0.68891  0.681519653846
 C6 0.651569 0.885309 0.68835  0.681519653846
 C8 0.118374 0.021703 0.74812  -0.0702290961538
 C8 0.617404 0.022132 0.74778  -0.0702290961538
 C8 0.10497 0.084132 0.81013  -0.0702290961538
 C8 0.604206 0.084532 0.80993  -0.0702290961538
 C6 0.47143 0.262405 0.06402  0.681519653846
 C6 0.971449 0.262112 0.064  0.681519653846
 C7 0.403427 0.259468 0.06118  -0.120135346154
 C7 0.90335 0.259687 0.06158  -0.120135346154
 C8 0.370732 0.23529 0.11274  -0.0702290961538
 C8 0.870463 0.235943 0.11331  -0.0702290961538
 C8 0.307745 0.239125 0.11446  -0.0702290961538
 C8 0.807461 0.239802 0.11488  -0.0702290961538
 C7 0.276154 0.265521 0.06363  -0.120135346154
 C7 0.775914 0.2658 0.06373  -0.120135346154
 C6 0.208058 0.269645 0.06533  0.681519653846
 C6 0.707742 0.269773 0.06512  0.681519653846
 C8 0.308784 0.287764 0.01071  -0.0702290961538
 C8 0.808729 0.287731 0.01073  -0.0702290961538
 C8 0.371792 0.28517 0.00981  -0.0702290961538
 C8 0.871767 0.285113 0.00998  -0.0702290961538
 N1 0.336166 0.353762 0.32044  -0.405847846154
 N1 0.835793 0.354119 0.32088  -0.405847846154
 N2 0.355407 0.418131 0.24330  -0.00482784615385
 N2 0.855297 0.418366 0.24370  -0.00482784615385
 N2 0.452348 0.539437 0.1053  -0.00482784615385
 N2 0.95196 0.539691 0.10541  -0.00482784615385
 N1 0.41939 0.604082 0.0335  -0.405847846154
 N1 0.919006 0.604139 0.03344  -0.405847846154
 N1 0.414446 0.853676 0.82058  -0.405847846154
 N1 0.913938 0.854164 0.82064  -0.405847846154
 N2 0.395026 0.91788 0.74339  -0.00482784615385
 N2 0.894572 0.918572 0.7436  -0.00482784615385
 N2 0.298063 0.039677 0.6057  -0.00482784615385
 N2 0.79779 0.039408 0.60538  -0.00482784615385
 N1 0.330417 0.104371 0.5336  -0.405847846154
 N1 0.830836 0.103945 0.53344  -0.405847846154
 N1 0.086041 0.145863 0.17940  -0.405847846154
 N1 0.58554 0.146335 0.17943  -0.405847846154
 N2 0.105405 0.081445 0.25642  -0.00482784615385
 N2 0.604955 0.082124 0.25662  -0.00482784615385
 N2 0.202201 0.960612 0.39465  -0.00482784615385
 N2 0.70193 0.960345 0.39424  -0.00482784615385
 N1 0.169152 0.896077 0.46659  -0.405847846154
 N1 0.669574 0.895652 0.46637  -0.405847846154
 N1 0.164191 0.645899 0.6791  -0.405847846154
 N1 0.663808 0.646258 0.67958  -0.405847846154
 N2 0.144688 0.581651 0.75632  -0.00482784615385
 N2 0.644563 0.581884 0.75671  -0.00482784615385
 N2 0.04802 0.460321 0.89461  -0.00482784615385
 N2 0.547633 0.460579 0.8946  -0.00482784615385
 N1 0.080973 0.395879 0.96659  -0.405847846154
 N1 0.580589 0.395937 0.96647  -0.405847846154
 O1 0.418498 0.790972 0.06167  -0.599527846154
 O1 0.917169 0.790951 0.06205  -0.599527846154
 O1 0.394836 0.862751 0.98867  -0.599527846154
 O1 0.895826 0.862926 0.98850  -0.599527846154
 O1 0.33343 0.176728 0.30084  -0.599527846154
 O1 0.832182 0.177029 0.30034  -0.599527846154
 O1 0.351901 0.103812 0.37442  -0.599527846154
 O1 0.850705 0.104006 0.3738  -0.599527846154
 O1 0.501789 0.782127 0.90731  -0.599527846154
 O1 0.0 0.78161 0.90563  -0.599527846154
 O1 0.503461 0.688232 0.96067  -0.599527846154
 O1 0.0 0.689802 0.96158  -0.599527846154
 O1 0.3191 0.753245 0.88678  -0.599527846154
 O1 0.818628 0.753942 0.88690  -0.599527846154
 O1 0.317674 0.704219 0.98178  -0.599527846154
 O1 0.817429 0.703681 0.98107  -0.599527846154
 O1 0.330826 0.29103 0.56169  -0.599527846154
 O1 0.8322 0.29086 0.56152  -0.599527846154
 O1 0.354599 0.362822 0.48865  -0.599527846154
 O1 0.855748 0.362699 0.48844  -0.599527846154
 O1 0.417929 0.676461 0.80103  -0.599527846154
 O1 0.917082 0.677095 0.80059  -0.599527846154
 O1 0.397729 0.603781 0.87443  -0.599527846154
 O1 0.898719 0.603932 0.8740  -0.599527846154
 O1 0.248252 0.28142 0.40571  -0.599527846154
 O1 0.748362 0.281731 0.40742  -0.599527846154
 O1 0.246293 0.188212 0.45993  -0.599527846154
 O1 0.746602 0.188425 0.46151  -0.599527846154
 O1 0.431767 0.254642 0.38727  -0.599527846154
 O1 0.930973 0.253151 0.38640  -0.599527846154
 O1 0.431887 0.205576 0.48228  -0.599527846154
 O1 0.932469 0.203563 0.48102  -0.599527846154
 O1 0.167776 0.709156 0.43850  -0.599527846154
 O1 0.669151 0.708983 0.43835  -0.599527846154
 O1 0.144231 0.637316 0.51158  -0.599527846154
 O1 0.645377 0.637186 0.51138  -0.599527846154
 O1 0.082895 0.322923 0.19943  -0.599527846154
 O1 0.582068 0.323557 0.19898  -0.599527846154
 O1 0.101264 0.396086 0.12598  -0.599527846154
 O1 0.60226 0.396243 0.12559  -0.599527846154
 O1 0.251615 0.718271 0.59259  -0.599527846154
 O1 0.751723 0.718594 0.59430  -0.599527846154
 O1 0.253374 0.811576 0.53850  -0.599527846154
 O1 0.753687 0.811801 0.5400  -0.599527846154
 O1 0.069006 0.746863 0.61362  -0.599527846154
 O1 0.568212 0.745415 0.61277  -0.599527846154
 O1 0.067505 0.796463 0.51900  -0.599527846154
 O1 0.568089 0.794469 0.51775  -0.599527846154
 O1 0.082809 0.209058 0.93800  -0.599527846154
 O1 0.581478 0.209046 0.93835  -0.599527846154
 O1 0.104161 0.137076 0.01154  -0.599527846154
 O1 0.605142 0.137264 0.01135  -0.599527846154
 O1 0.1678 0.822989 0.69968  -0.599527846154
 O1 0.666555 0.823293 0.69919  -0.599527846154
 O1 0.149278 0.896019 0.62621  -0.599527846154
 O1 0.648084 0.896206 0.62560  -0.599527846154
 O1 0.997807 0.218403 0.09439  -0.599527846154
 O1 0.498193 0.217894 0.0927  -0.599527846154
 O1 0.997033 0.310222 0.03845  -0.599527846154
 O1 0.496522 0.311788 0.03937  -0.599527846154
 O1 0.181353 0.246086 0.11314  -0.599527846154
 O1 0.680887 0.246762 0.11323  -0.599527846154
 O1 0.182554 0.296333 0.0189  -0.599527846154
 O1 0.682308 0.295787 0.01823  -0.599527846154
