#======================================================================

# CRYSTAL DATA

#----------------------------------------------------------------------

data_VESTA_phase_1


_pd_phase_name                         MOF
_cell_length_a                         23.00300
_cell_length_b                         23.02100
_cell_length_c                         18.81800
_cell_angle_alpha                      94.39500
_cell_angle_beta                       93.65800
_cell_angle_gamma                      97.78000
_symmetry_space_group_name_H-M         "P 1"
_symmetry_Int_Tables_number            1

loop_
_symmetry_equiv_pos_as_xyz
   "x, y, z"

loop_
   _atom_site_label
   _atom_site_fract_x
   _atom_site_fract_y
   _atom_site_fract_z
 _atom_site_charge
 Cu1 0.488292 0.044424 0.47497  0.8826399
 Cu1 0.487766 0.544445 0.47269  0.8826399
 Cu1 0.988323 0.04439 0.4748  0.8826399
 Cu1 0.987824 0.544406 0.47263  0.8826399
 Cu1 0.455081 0.011907 0.02869  0.8826399
 Cu1 0.455086 0.51292 0.02686  0.8826399
 Cu1 0.95703 0.012142 0.02808  0.8826399
 Cu1 0.955077 0.512889 0.02679  0.8826399
 Cu1 0.01165 0.455599 0.52513  0.8826399
 Cu1 0.012168 0.955574 0.52733  0.8826399
 Cu1 0.511657 0.455661 0.52519  0.8826399
 Cu1 0.512181 0.955614 0.52743  0.8826399
 Cu1 0.042982 0.487872 0.97190  0.8826399
 Cu1 0.044946 0.987123 0.97319  0.8826399
 Cu1 0.543006 0.487883 0.97195  0.8826399
 Cu1 0.543085 0.98733 0.97362  0.8826399
 H1 0.383632 0.108674 0.63660  0.110285233333
 H1 0.382957 0.608969 0.63453  0.110285233333
 H1 0.88348 0.108224 0.63670  0.110285233333
 H1 0.883176 0.608947 0.63433  0.110285233333
 H1 0.146997 0.167451 0.53505  0.110285233333
 H1 0.146703 0.667319 0.53290  0.110285233333
 H1 0.647071 0.167506 0.53550  0.110285233333
 H1 0.646637 0.667412 0.53291  0.110285233333
 H1 0.240078 0.222488 0.59533  0.110285233333
 H1 0.239654 0.722477 0.59330  0.110285233333
 H1 0.740168 0.222412 0.59587  0.110285233333
 H1 0.739677 0.722557 0.59310  0.110285233333
 H1 0.272763 0.067402 0.6968  0.110285233333
 H1 0.271833 0.567878 0.69618  0.110285233333
 H1 0.772871 0.067082 0.69683  0.110285233333
 H1 0.772096 0.567915 0.69574  0.110285233333
 H1 0.31207 0.228332 0.7019  0.110285233333
 H1 0.311289 0.72863 0.70058  0.110285233333
 H1 0.81221 0.228061 0.70231  0.110285233333
 H1 0.811646 0.728714 0.69992  0.110285233333
 H1 0.354415 0.18593 0.65088  0.110285233333
 H1 0.353623 0.686481 0.6491  0.110285233333
 H1 0.854515 0.185696 0.65115  0.110285233333
 H1 0.853829 0.686315 0.6486  0.110285233333
 H1 0.18027 0.012641 0.63529  0.110285233333
 H1 0.179393 0.513007 0.63461  0.110285233333
 H1 0.680338 0.012446 0.63520  0.110285233333
 H1 0.67957 0.513055 0.63438  0.110285233333
 H1 0.388745 0.115032 0.86832  0.110285233333
 H1 0.389303 0.615876 0.86632  0.110285233333
 H1 0.889729 0.115284 0.86849  0.110285233333
 H1 0.889402 0.616084 0.86613  0.110285233333
 H1 0.329727 0.354848 0.96714  0.110285233333
 H1 0.33026 0.85317 0.96913  0.110285233333
 H1 0.829767 0.354679 0.96711  0.110285233333
 H1 0.832543 0.853841 0.96881  0.110285233333
 H1 0.27477 0.260664 0.90903  0.110285233333
 H1 0.275216 0.759533 0.90973  0.110285233333
 H1 0.774951 0.260374 0.9091  0.110285233333
 H1 0.776751 0.760408 0.90981  0.110285233333
 H1 0.43003 0.225395 0.80661  0.110285233333
 H1 0.429914 0.726058 0.80492  0.110285233333
 H1 0.930266 0.225295 0.80673  0.110285233333
 H1 0.930404 0.726133 0.80327  0.110285233333
 H1 0.269073 0.186011 0.80413  0.110285233333
 H1 0.269108 0.686403 0.80299  0.110285233333
 H1 0.769309 0.185492 0.80464  0.110285233333
 H1 0.769702 0.687295 0.80268  0.110285233333
 H1 0.311964 0.144961 0.8551  0.110285233333
 H1 0.311809 0.644766 0.85336  0.110285233333
 H1 0.812543 0.144668 0.85552  0.110285233333
 H1 0.812131 0.645492 0.85317  0.110285233333
 H1 0.48466 0.319007 0.86594  0.110285233333
 H1 0.48465 0.819133 0.86553  0.110285233333
 H1 0.984752 0.31902 0.86590  0.110285233333
 H1 0.985849 0.819066 0.86335  0.110285233333
 H1 0.116545 0.391742 0.36325  0.110285233333
 H1 0.11692 0.891138 0.3656  0.110285233333
 H1 0.616521 0.391887 0.36337  0.110285233333
 H1 0.617164 0.891433 0.36524  0.110285233333
 H1 0.352929 0.332344 0.4644  0.110285233333
 H1 0.353246 0.832727 0.467  0.110285233333
 H1 0.852819 0.332542 0.46469  0.110285233333
 H1 0.853115 0.832639 0.46675  0.110285233333
 H1 0.259854 0.277476 0.40401  0.110285233333
 H1 0.260215 0.777588 0.40707  0.110285233333
 H1 0.759701 0.277668 0.40434  0.110285233333
 H1 0.760131 0.77768 0.406  0.110285233333
 H1 0.227188 0.432893 0.30321  0.110285233333
 H1 0.227993 0.932152 0.30413  0.110285233333
 H1 0.727162 0.432945 0.30315  0.110285233333
 H1 0.728315 0.932464 0.30350  0.110285233333
 H1 0.187815 0.271911 0.29756  0.110285233333
 H1 0.188426 0.771373 0.30006  0.110285233333
 H1 0.687705 0.27198 0.29786  0.110285233333
 H1 0.688507 0.771744 0.29893  0.110285233333
 H1 0.145512 0.314257 0.34874  0.110285233333
 H1 0.146186 0.813743 0.35129  0.110285233333
 H1 0.645435 0.31441 0.34898  0.110285233333
 H1 0.646302 0.813939 0.35045  0.110285233333
 H1 0.319696 0.487493 0.36495  0.110285233333
 H1 0.320495 0.987012 0.36556  0.110285233333
 H1 0.8197 0.487559 0.36480  0.110285233333
 H1 0.820785 0.987147 0.36523  0.110285233333
 H1 0.11034 0.384764 0.13146  0.110285233333
 H1 0.110633 0.883969 0.13382  0.110285233333
 H1 0.610314 0.384769 0.13157  0.110285233333
 H1 0.610334 0.884685 0.13343  0.110285233333
 H1 0.170211 0.145356 0.03278  0.110285233333
 H1 0.167396 0.646287 0.03095  0.110285233333
 H1 0.667305 0.145962 0.03075  0.110285233333
 H1 0.667485 0.646232 0.03118  0.110285233333
 H1 0.225042 0.23966 0.09071  0.110285233333
 H1 0.223186 0.739733 0.08990  0.110285233333
 H1 0.722976 0.239829 0.08873  0.110285233333
 H1 0.72318 0.739855 0.08977  0.110285233333
 H1 0.069736 0.274785 0.19313  0.110285233333
 H1 0.069723 0.77374 0.19701  0.110285233333
 H1 0.569374 0.274558 0.19510  0.110285233333
 H1 0.56949 0.774305 0.19613  0.110285233333
 H1 0.23072 0.314498 0.19525  0.110285233333
 H1 0.230335 0.812739 0.19726  0.110285233333
 H1 0.730042 0.313558 0.19519  0.110285233333
 H1 0.730245 0.813487 0.19611  0.110285233333
 H1 0.187517 0.355376 0.14441  0.110285233333
 H1 0.187888 0.854511 0.14676  0.110285233333
 H1 0.687398 0.355016 0.14448  0.110285233333
 H1 0.687351 0.854978 0.14579  0.110285233333
 H1 0.015234 0.181067 0.13397  0.110285233333
 H1 0.014267 0.680797 0.1369  0.110285233333
 H1 0.514063 0.181159 0.13608  0.110285233333
 H1 0.51415 0.681158 0.13649  0.110285233333
 H1 0.493463 0.005805 0.75180  0.110285233333
 H1 0.49319 0.506119 0.74927  0.110285233333
 H1 0.994714 0.006526 0.75166  0.110285233333
 H1 0.993196 0.506067 0.74931  0.110285233333
 H1 0.005239 0.493384 0.24830  0.110285233333
 H1 0.006822 0.993955 0.25066  0.110285233333
 H1 0.505281 0.493527 0.24832  0.110285233333
 H1 0.506049 0.993717 0.25096  0.110285233333
 C1 0.399585 0.096212 0.68806  -0.110859645455
 C1 0.399142 0.596561 0.68592  -0.110859645455
 C1 0.899823 0.096059 0.68814  -0.110859645455
 C1 0.899302 0.59657 0.68577  -0.110859645455
 C2 0.440233 0.056247 0.68819  -0.0462634333333
 C2 0.439742 0.556524 0.68588  -0.0462634333333
 C2 0.94074 0.056375 0.68819  -0.0462634333333
 C2 0.939845 0.556488 0.68582  -0.0462634333333
 C3 0.101201 0.054077 0.54818  0.6774199
 C3 0.100679 0.554068 0.5464  0.6774199
 C3 0.601228 0.054059 0.54833  0.6774199
 C3 0.600691 0.554122 0.5464  0.6774199
 C2 0.262951 0.148497 0.64998  -0.0462634333333
 C2 0.262289 0.648741 0.64865  -0.0462634333333
 C2 0.763049 0.148297 0.65026  -0.0462634333333
 C2 0.762445 0.648799 0.64830  -0.0462634333333
 C2 0.158125 0.086586 0.58125  -0.0462634333333
 C2 0.157513 0.586675 0.57980  -0.0462634333333
 C2 0.658176 0.08652 0.58143  -0.0462634333333
 C2 0.657562 0.58674 0.57970  -0.0462634333333
 C1 0.175319 0.145766 0.56984  -0.110859645455
 C1 0.174861 0.64576 0.56805  -0.110859645455
 C1 0.675386 0.145735 0.57020  -0.110859645455
 C1 0.674864 0.645837 0.56796  -0.110859645455
 C1 0.227341 0.176228 0.60382  -0.110859645455
 C1 0.226829 0.67629 0.60209  -0.110859645455
 C1 0.727424 0.176126 0.60423  -0.110859645455
 C1 0.726886 0.676363 0.60188  -0.110859645455
 C1 0.2457 0.089323 0.66079  -0.110859645455
 C1 0.244883 0.589675 0.6598  -0.110859645455
 C1 0.745791 0.089084 0.66087  -0.110859645455
 C1 0.745076 0.589723 0.65949  -0.110859645455
 C4 0.319018 0.182609 0.68769  -0.0862301
 C4 0.318385 0.682972 0.6862  -0.0862301
 C4 0.819142 0.182345 0.68800  -0.0862301
 C4 0.818619 0.682994 0.68572  -0.0862301
 C1 0.193961 0.058533 0.62662  -0.110859645455
 C1 0.193165 0.558823 0.62564  -0.110859645455
 C1 0.69403 0.058367 0.6266  -0.110859645455
 C1 0.693305 0.558878 0.62542  -0.110859645455
 C3 0.461202 0.034632 0.61880  0.6774199
 C3 0.460459 0.534709 0.61640  0.6774199
 C3 0.961418 0.03463 0.61871  0.6774199
 C3 0.96054 0.534649 0.61635  0.6774199
 C1 0.401623 0.098954 0.81667  -0.110859645455
 C1 0.401879 0.599626 0.81459  -0.110859645455
 C1 0.902516 0.099193 0.81680  -0.110859645455
 C1 0.901981 0.599762 0.81444  -0.110859645455
 C2 0.442068 0.058781 0.81601  -0.0462634333333
 C2 0.442281 0.559412 0.81379  -0.0462634333333
 C2 0.943289 0.059342 0.81604  -0.0462634333333
 C2 0.942334 0.559488 0.81373  -0.0462634333333
 C3 0.443395 0.399808 0.95243  0.6774199
 C3 0.443617 0.898856 0.95399  0.6774199
 C3 0.943413 0.399771 0.95238  0.6774199
 C3 0.945778 0.89901 0.95259  0.6774199
 C2 0.348852 0.236386 0.8541  -0.0462634333333
 C2 0.348993 0.736187 0.85347  -0.0462634333333
 C2 0.849069 0.236168 0.85427  -0.0462634333333
 C2 0.849957 0.736677 0.85272  -0.0462634333333
 C2 0.410658 0.34252 0.92034  -0.0462634333333
 C2 0.410937 0.84174 0.92120  -0.0462634333333
 C2 0.910724 0.342448 0.92031  -0.0462634333333
 C2 0.91272 0.842034 0.91992  -0.0462634333333
 C1 0.351458 0.325754 0.93261  -0.110859645455
 C1 0.351864 0.824585 0.93378  -0.110859645455
 C1 0.851544 0.325604 0.93261  -0.110859645455
 C1 0.853739 0.825137 0.9331  -0.110859645455
 C1 0.321044 0.273087 0.89986  -0.110859645455
 C1 0.321393 0.772224 0.90029  -0.110859645455
 C1 0.821209 0.272865 0.89995  -0.110859645455
 C1 0.822857 0.772886 0.89989  -0.110859645455
 C1 0.408028 0.253279 0.84238  -0.110859645455
 C1 0.40805 0.753432 0.84147  -0.110859645455
 C1 0.908215 0.25316 0.8424  -0.110859645455
 C1 0.908921 0.753659 0.84007  -0.110859645455
 C4 0.314909 0.179555 0.81773  -0.0862301
 C4 0.314894 0.679679 0.81638  -0.0862301
 C4 0.815225 0.179216 0.81806  -0.0862301
 C4 0.815404 0.680256 0.81598  -0.0862301
 C1 0.438751 0.305655 0.87529  -0.110859645455
 C1 0.438838 0.805514 0.87512  -0.110859645455
 C1 0.93886 0.305606 0.87528  -0.110859645455
 C1 0.940109 0.80566 0.87343  -0.110859645455
 C3 0.463903 0.038494 0.88502  0.6774199
 C3 0.464293 0.539362 0.88290  0.6774199
 C3 0.965418 0.039228 0.88502  0.6774199
 C3 0.964288 0.539404 0.88285  0.6774199
 C1 0.100193 0.403907 0.31181  -0.110859645455
 C1 0.100765 0.903496 0.31419  -0.110859645455
 C1 0.600182 0.404035 0.31191  -0.110859645455
 C1 0.600774 0.903772 0.31390  -0.110859645455
 C2 0.05925 0.443566 0.31178  -0.0462634333333
 C2 0.060201 0.943555 0.31415  -0.0462634333333
 C2 0.559262 0.443713 0.31184  -0.0462634333333
 C2 0.560006 0.943626 0.31412  -0.0462634333333
 C3 0.398765 0.445858 0.45181  0.6774199
 C3 0.399278 0.945955 0.45359  0.6774199
 C3 0.89875 0.44595 0.45175  0.6774199
 C3 0.899311 0.945932 0.4534  0.6774199
 C2 0.236993 0.351636 0.34969  -0.0462634333333
 C2 0.237555 0.851306 0.35171  -0.0462634333333
 C2 0.736907 0.351754 0.3498  -0.0462634333333
 C2 0.737665 0.851525 0.35095  -0.0462634333333
 C2 0.341842 0.413381 0.41864  -0.0462634333333
 C2 0.342411 0.913356 0.42037  -0.0462634333333
 C2 0.841795 0.413505 0.41865  -0.0462634333333
 C2 0.842485 0.913383 0.41997  -0.0462634333333
 C1 0.324632 0.354146 0.4297  -0.110859645455
 C1 0.32506 0.854284 0.43218  -0.110859645455
 C1 0.824537 0.354309 0.42994  -0.110859645455
 C1 0.825033 0.854291 0.43161  -0.110859645455
 C1 0.272601 0.323774 0.39571  -0.110859645455
 C1 0.27305 0.823763 0.39823  -0.110859645455
 C1 0.772485 0.323936 0.3959  -0.110859645455
 C1 0.773044 0.823868 0.39748  -0.110859645455
 C1 0.254253 0.410864 0.33916  -0.110859645455
 C1 0.254967 0.91036 0.34046  -0.110859645455
 C1 0.754207 0.410949 0.33916  -0.110859645455
 C1 0.75519 0.910587 0.33984  -0.110859645455
 C4 0.180897 0.317625 0.31191  -0.0862301
 C4 0.181418 0.817084 0.31424  -0.0862301
 C4 0.680799 0.317711 0.31211  -0.0862301
 C4 0.681508 0.81742 0.31337  -0.0862301
 C1 0.306004 0.441559 0.37342  -0.110859645455
 C1 0.306721 0.941205 0.37457  -0.110859645455
 C1 0.805977 0.441651 0.37337  -0.110859645455
 C1 0.806927 0.941332 0.37412  -0.110859645455
 C3 0.038567 0.465312 0.38125  0.6774199
 C3 0.039492 0.965365 0.38363  0.6774199
 C3 0.538563 0.465454 0.38130  0.6774199
 C3 0.539441 0.965391 0.38369  0.6774199
 C1 0.097523 0.400818 0.18315  -0.110859645455
 C1 0.098061 0.900288 0.18552  -0.110859645455
 C1 0.597506 0.400862 0.18325  -0.110859645455
 C1 0.59775 0.900786 0.18522  -0.110859645455
 C2 0.056721 0.440637 0.18392  -0.0462634333333
 C2 0.0577 0.940552 0.18624  -0.0462634333333
 C2 0.556741 0.440718 0.18399  -0.0462634333333
 C2 0.557114 0.94077 0.18621  -0.0462634333333
 C3 0.056586 0.10026 0.04757  0.6774199
 C3 0.05424 0.600993 0.04742  0.6774199
 C3 0.554308 0.100662 0.0476  0.6774199
 C3 0.554252 0.601059 0.04743  0.6774199
 C2 0.150938 0.263882 0.14561  -0.0462634333333
 C2 0.150071 0.763334 0.14727  -0.0462634333333
 C2 0.649782 0.263813 0.1456  -0.0462634333333
 C2 0.649947 0.763714 0.14671  -0.0462634333333
 C2 0.089263 0.157602 0.07959  -0.0462634333333
 C2 0.087302 0.657965 0.08010  -0.0462634333333
 C2 0.587173 0.157955 0.07963  -0.0462634333333
 C2 0.587286 0.658101 0.07998  -0.0462634333333
 C1 0.148441 0.174442 0.06728  -0.110859645455
 C1 0.146237 0.674934 0.06674  -0.110859645455
 C1 0.646092 0.174865 0.06615  -0.110859645455
 C1 0.646255 0.675008 0.06672  -0.110859645455
 C1 0.178785 0.22718 0.09992  -0.110859645455
 C1 0.17712 0.727192 0.09997  -0.110859645455
 C1 0.676905 0.227358 0.09882  -0.110859645455
 C1 0.677084 0.727374 0.09974  -0.110859645455
 C1 0.091784 0.24691 0.15740  -0.110859645455
 C1 0.091162 0.746268 0.16010  -0.110859645455
 C1 0.590868 0.246836 0.15855  -0.110859645455
 C1 0.591007 0.746698 0.15946  -0.110859645455
 C4 0.184813 0.320811 0.18185  -0.0862301
 C4 0.184629 0.81977 0.18397  -0.0862301
 C4 0.684287 0.320441 0.18191  -0.0862301
 C4 0.684432 0.820311 0.18310  -0.0862301
 C1 0.061129 0.194466 0.12459  -0.110859645455
 C1 0.059969 0.694261 0.12675  -0.110859645455
 C1 0.559753 0.194576 0.12577  -0.110859645455
 C1 0.559875 0.694571 0.12634  -0.110859645455
 C3 0.034595 0.460766 0.11494  0.6774199
 C3 0.035736 0.960621 0.11712  0.6774199
 C3 0.534617 0.460808 0.11499  0.6774199
 C3 0.534789 0.960831 0.11727  0.6774199
 C5 0.379317 0.118613 0.75248  0.1350999
 C5 0.379188 0.619089 0.75049  0.1350999
 C5 0.879754 0.118532 0.75265  0.1350999
 C5 0.879343 0.619185 0.75027  0.1350999
 C1 0.461937 0.036932 0.75196  -0.110859645455
 C1 0.46174 0.537327 0.74960  -0.110859645455
 C1 0.962981 0.037448 0.75193  -0.110859645455
 C1 0.961789 0.537319 0.74958  -0.110859645455
 C5 0.120284 0.381465 0.24730  0.1350999
 C5 0.120711 0.880876 0.24968  0.1350999
 C5 0.620232 0.381522 0.24742  0.1350999
 C5 0.620623 0.881314 0.24924  0.1350999
 C1 0.036996 0.462487 0.24804  -0.110859645455
 C1 0.038245 0.962719 0.25040  -0.110859645455
 C1 0.537027 0.462619 0.2480  -0.110859645455
 C1 0.537691 0.962701 0.25048  -0.110859645455
 N1 0.339041 0.158408 0.75260  -0.0780801
 N1 0.338854 0.658847 0.7509  -0.0780801
 N1 0.839227 0.158074 0.75283  -0.0780801
 N1 0.839046 0.658976 0.75058  -0.0780801
 N1 0.160835 0.341946 0.24710  -0.0780801
 N1 0.161009 0.841087 0.24937  -0.0780801
 N1 0.660711 0.341934 0.24724  -0.0780801
 N1 0.661039 0.841635 0.24867  -0.0780801
 O1 0.457303 0.067224 0.56705  -0.5645951
 O1 0.457425 0.567689 0.56491  -0.5645951
 O1 0.957346 0.067147 0.56692  -0.5645951
 O1 0.95749 0.567625 0.56486  -0.5645951
 O1 0.067562 0.082939 0.51225  -0.5645951
 O1 0.067556 0.58257 0.50925  -0.5645951
 O1 0.567616 0.082918 0.51235  -0.5645951
 O1 0.567541 0.582604 0.50926  -0.5645951
 O1 0.089957 0.999676 0.55937  -0.5645951
 O1 0.089016 0.499932 0.55877  -0.5645951
 O1 0.58994 0.999667 0.55957  -0.5645951
 O1 0.589033 0.499996 0.55882  -0.5645951
 O1 0.48006 0.485254 0.61414  -0.5645951
 O1 0.481853 0.985712 0.61689  -0.5645951
 O1 0.980115 0.485184 0.61411  -0.5645951
 O1 0.982014 0.98568 0.61681  -0.5645951
 O1 0.431865 0.043073 0.93778  -0.5645951
 O1 0.432678 0.544931 0.93590  -0.5645951
 O1 0.932602 0.042395 0.93722  -0.5645951
 O1 0.93265 0.544941 0.93583  -0.5645951
 O1 0.414748 0.43445 0.98818  -0.5645951
 O1 0.41511 0.932753 0.9910  -0.5645951
 O1 0.914751 0.4344 0.98812  -0.5645951
 O1 0.91789 0.932464 0.99118  -0.5645951
 O1 0.49789 0.410219 0.94076  -0.5645951
 O1 0.497886 0.909917 0.94144  -0.5645951
 O1 0.997905 0.410213 0.94070  -0.5645951
 O1 0.999676 0.910381 0.9384  -0.5645951
 O1 0.014974 0.019864 0.88611  -0.5645951
 O1 0.012623 0.517715 0.88332  -0.5645951
 O1 0.512679 0.017625 0.88563  -0.5645951
 O1 0.512659 0.517697 0.88335  -0.5645951
 O1 0.04265 0.432813 0.43307  -0.5645951
 O1 0.042528 0.93237 0.4351  -0.5645951
 O1 0.542663 0.432953 0.43311  -0.5645951
 O1 0.542559 0.932402 0.43516  -0.5645951
 O1 0.432403 0.416996 0.48775  -0.5645951
 O1 0.432454 0.917444 0.49074  -0.5645951
 O1 0.932371 0.417072 0.48770  -0.5645951
 O1 0.932406 0.917415 0.49067  -0.5645951
 O1 0.410003 0.500276 0.44069  -0.5645951
 O1 0.410912 0.0 0.4413  -0.5645951
 O1 0.910034 0.50035 0.44057  -0.5645951
 O1 0.910985 0.0 0.44120  -0.5645951
 O1 0.019888 0.014819 0.38588  -0.5645951
 O1 0.017988 0.514263 0.38316  -0.5645951
 O1 0.519832 0.014847 0.38599  -0.5645951
 O1 0.517943 0.514383 0.38319  -0.5645951
 O1 0.067409 0.457604 0.06274  -0.5645951
 O1 0.067372 0.955079 0.06414  -0.5645951
 O1 0.567431 0.457626 0.06279  -0.5645951
 O1 0.567355 0.957415 0.06484  -0.5645951
 O1 0.085256 0.065627 0.01184  -0.5645951
 O1 0.082126 0.567546 0.00882  -0.5645951
 O1 0.582372 0.067103 0.00947  -0.5645951
 O1 0.582144 0.567584 0.00887  -0.5645951
 O1 0.002098 0.089804 0.05926  -0.5645951
 O1 0.000341 0.589624 0.06154  -0.5645951
 O1 0.500452 0.089148 0.06187  -0.5645951
 O1 0.500362 0.589677 0.06158  -0.5645951
 O1 0.485039 0.480165 0.1139  -0.5645951
 O1 0.485269 0.980301 0.11638  -0.5645951
 O1 0.985044 0.480139 0.11387  -0.5645951
 O1 0.987396 0.982301 0.1166  -0.5645951
