#======================================================================

# CRYSTAL DATA

#----------------------------------------------------------------------

data_VESTA_phase_1


_pd_phase_name                         MOF
_cell_length_a                         14.32000
_cell_length_b                         19.75700
_cell_length_c                         19.78900
_cell_angle_alpha                      88.19300
_cell_angle_beta                       79.45200
_cell_angle_gamma                      79.61400
_symmetry_space_group_name_H-M         "P 1"
_symmetry_Int_Tables_number            1

loop_
_symmetry_equiv_pos_as_xyz
   "x, y, z"

loop_
   _atom_site_label
   _atom_site_fract_x
   _atom_site_fract_y
   _atom_site_fract_z
 _atom_site_charge
 Cu1 0.437168 0.056911 0.4434  0.206516529412
 Cu1 0.93804 0.056991 0.4437  0.206516529412
 Cu1 0.188386 0.942991 0.55703  0.206516529412
 Cu1 0.687301 0.943374 0.5573  0.206516529412
 Cu1 0.341289 0.443228 0.943  0.206516529412
 Cu1 0.840276 0.443572 0.94327  0.206516529412
 Cu1 0.033384 0.556997 0.05770  0.206516529412
 Cu1 0.53444 0.557211 0.05726  0.206516529412
 H1 0.435029 0.210554 0.42977  0.0926694981618
 H1 0.935387 0.210705 0.42983  0.0926694981618
 H1 0.311204 0.316334 0.44099  0.0926694981618
 H1 0.811439 0.316395 0.44099  0.0926694981618
 H1 0.096441 0.185667 0.49905  0.0926694981618
 H1 0.59691 0.185554 0.49907  0.0926694981618
 H1 0.227894 0.086848 0.48574  0.0926694981618
 H1 0.72848 0.086822 0.48582  0.0926694981618
 H1 0.020532 0.276866 0.56095  0.0926694981618
 H1 0.520749 0.27677 0.56092  0.0926694981618
 H1 0.387251 0.374563 0.57381  0.0926694981618
 H1 0.887055 0.374706 0.57384  0.0926694981618
 H1 0.049889 0.482702 0.41528  0.0926694981618
 H1 0.549984 0.482637 0.41528  0.0926694981618
 H1 0.182053 0.384381 0.40025  0.0926694981618
 H1 0.682195 0.384362 0.4002  0.0926694981618
 H1 0.255151 0.789413 0.57051  0.0926694981618
 H1 0.754813 0.789708 0.57061  0.0926694981618
 H1 0.189889 0.683676 0.55862  0.0926694981618
 H1 0.689819 0.683856 0.55867  0.0926694981618
 H1 0.439182 0.81448 0.50092  0.0926694981618
 H1 0.939389 0.814566 0.50090  0.0926694981618
 H1 0.014761 0.913348 0.51486  0.0926694981618
 H1 0.514269 0.91338 0.51491  0.0926694981618
 H1 0.439917 0.723399 0.43883  0.0926694981618
 H1 0.939928 0.723463 0.43881  0.0926694981618
 H1 0.361951 0.625473 0.42571  0.0926694981618
 H1 0.861888 0.625565 0.42570  0.0926694981618
 H1 0.499273 0.517023 0.58358  0.0926694981618
 H1 0.999161 0.517061 0.58356  0.0926694981618
 H1 0.074569 0.615439 0.59886  0.0926694981618
 H1 0.57456 0.615443 0.59890  0.0926694981618
 H1 0.349892 0.429825 0.79029  0.0926694981618
 H1 0.849703 0.429875 0.79002  0.0926694981618
 H1 0.467665 0.441257 0.68423  0.0926694981618
 H1 0.967732 0.441226 0.6841  0.0926694981618
 H1 0.153821 0.499138 0.81414  0.0926694981618
 H1 0.654085 0.499187 0.81396  0.0926694981618
 H1 0.029164 0.485725 0.91313  0.0926694981618
 H1 0.529644 0.485718 0.91311  0.0926694981618
 H1 0.198485 0.561233 0.72308  0.0926694981618
 H1 0.698352 0.561351 0.72301  0.0926694981618
 H1 0.325225 0.574232 0.62501  0.0926694981618
 H1 0.825097 0.574356 0.62494  0.0926694981618
 H1 0.241458 0.415821 0.51692  0.0926694981618
 H1 0.741386 0.415899 0.51687  0.0926694981618
 H1 0.117076 0.400669 0.61545  0.0926694981618
 H1 0.617042 0.400707 0.61542  0.0926694981618
 H1 0.45974 0.570407 0.21086  0.0926694981618
 H1 0.959372 0.570409 0.2112  0.0926694981618
 H1 0.030577 0.558881 0.3167  0.0926694981618
 H1 0.530597 0.558825 0.31644  0.0926694981618
 H1 0.310323 0.50104 0.1855  0.0926694981618
 H1 0.810598 0.500937 0.18558  0.0926694981618
 H1 0.228076 0.514658 0.08703  0.0926694981618
 H1 0.728657 0.514591 0.08694  0.0926694981618
 H1 0.340848 0.438955 0.27637  0.0926694981618
 H1 0.840765 0.438837 0.27643  0.0926694981618
 H1 0.42514 0.425811 0.37410  0.0926694981618
 H1 0.925028 0.425779 0.37417  0.0926694981618
 H1 0.208361 0.584076 0.48288  0.0926694981618
 H1 0.708302 0.584185 0.48278  0.0926694981618
 H1 0.125566 0.599342 0.3847  0.0926694981618
 H1 0.62554 0.59937 0.38459  0.0926694981618
 H1 0.439803 0.070456 0.29025  0.0926694981618
 H1 0.940029 0.070396 0.2905  0.0926694981618
 H1 0.063534 0.058817 0.18442  0.0926694981618
 H1 0.563478 0.058875 0.18429  0.0926694981618
 H1 0.278792 0.001004 0.31402  0.0926694981618
 H1 0.778345 0.000902 0.31417  0.0926694981618
 H1 0.147628 0.014592 0.41320  0.0926694981618
 H1 0.647003 0.014511 0.41321  0.0926694981618
 H1 0.354005 0.93877 0.2230  0.0926694981618
 H1 0.853896 0.93879 0.22308  0.0926694981618
 H1 0.487272 0.925612 0.12493  0.0926694981618
 H1 0.987185 0.925636 0.12503  0.0926694981618
 H1 0.324661 0.083777 0.01701  0.0926694981618
 H1 0.824609 0.083778 0.01707  0.0926694981618
 H1 0.192706 0.099137 0.11559  0.0926694981618
 H1 0.692639 0.099138 0.11561  0.0926694981618
 H1 0.119891 0.929891 0.71059  0.0926694981618
 H1 0.619637 0.929873 0.71087  0.0926694981618
 H1 0.185028 0.941178 0.81626  0.0926694981618
 H1 0.685055 0.941034 0.8164  0.0926694981618
 H1 0.436418 0.998894 0.68571  0.0926694981618
 H1 0.936062 0.999069 0.68567  0.0926694981618
 H1 0.361222 0.985541 0.58698  0.0926694981618
 H1 0.860611 0.985809 0.58706  0.0926694981618
 H1 0.435547 0.060963 0.77674  0.0926694981618
 H1 0.935439 0.061002 0.77681  0.0926694981618
 H1 0.013246 0.073981 0.87459  0.0926694981618
 H1 0.51332 0.073953 0.87452  0.0926694981618
 H1 0.375628 0.915431 0.98252  0.0926694981618
 H1 0.87566 0.915369 0.98253  0.0926694981618
 H1 0.300394 0.900328 0.88428  0.0926694981618
 H1 0.800438 0.900273 0.88429  0.0926694981618
 H1 0.024362 0.710791 0.07092  0.0926694981618
 H1 0.52461 0.711049 0.07078  0.0926694981618
 H1 0.40658 0.816623 0.05882  0.0926694981618
 H1 0.906567 0.816503 0.05885  0.0926694981618
 H1 0.221775 0.685275 0.00091  0.0926694981618
 H1 0.721444 0.685444 0.00087  0.0926694981618
 H1 0.346368 0.586681 0.01494  0.0926694981618
 H1 0.845806 0.586701 0.01500  0.0926694981618
 H1 0.176735 0.776205 0.93888  0.0926694981618
 H1 0.676752 0.776262 0.93881  0.0926694981618
 H1 0.04986 0.873967 0.92577  0.0926694981618
 H1 0.549861 0.874022 0.92570  0.0926694981618
 H1 0.132665 0.982995 0.08377  0.0926694981618
 H1 0.632651 0.983046 0.08371  0.0926694981618
 H1 0.257164 0.884789 0.09903  0.0926694981618
 H1 0.757133 0.884826 0.09  0.0926694981618
 H1 0.415546 0.289599 0.92990  0.0926694981618
 H1 0.915171 0.28996 0.92990  0.0926694981618
 H1 0.344613 0.183734 0.94131  0.0926694981618
 H1 0.844531 0.183945 0.94139  0.0926694981618
 H1 0.064554 0.314336 0.99900  0.0926694981618
 H1 0.564235 0.314243 0.99913  0.0926694981618
 H1 0.146602 0.413257 0.98549  0.0926694981618
 H1 0.646001 0.413305 0.98555  0.0926694981618
 H1 0.034121 0.223239 0.06113  0.0926694981618
 H1 0.534132 0.223169 0.06127  0.0926694981618
 H1 0.449652 0.125209 0.07408  0.0926694981618
 H1 0.949608 0.125279 0.07404  0.0926694981618
 H1 0.166625 0.016938 0.9156  0.0926694981618
 H1 0.666615 0.017002 0.91555  0.0926694981618
 H1 0.249589 0.11536 0.90055  0.0926694981618
 H1 0.749557 0.115443 0.90057  0.0926694981618
 C1 0.358736 0.207413 0.4445  0.146470279412
 C1 0.859118 0.207494 0.44463  0.146470279412
 C2 0.288572 0.266582 0.45083  -0.139680970588
 C2 0.788876 0.266624 0.45086  -0.139680970588
 C3 0.190518 0.26166 0.47105  0.0514348627451
 C3 0.690837 0.261641 0.47107  0.0514348627451
 C2 0.170022 0.195091 0.48372  -0.139680970588
 C2 0.670465 0.195042 0.48376  -0.139680970588
 C1 0.243865 0.138539 0.47603  0.146470279412
 C1 0.744384 0.138533 0.47612  0.146470279412
 C3 0.111872 0.322013 0.47916  0.0514348627451
 C3 0.612097 0.321952 0.47915  0.0514348627451
 C2 0.027003 0.321439 0.52765  -0.139680970588
 C2 0.527207 0.321348 0.52762  -0.139680970588
 C2 0.451134 0.377314 0.53515  -0.139680970588
 C2 0.950939 0.377428 0.53518  -0.139680970588
 C3 0.456595 0.436221 0.49446  0.0514348627451
 C3 0.956446 0.436312 0.49447  0.0514348627451
 C2 0.042088 0.43724 0.4468  -0.139680970588
 C2 0.542202 0.43717 0.44682  -0.139680970588
 C2 0.117951 0.381576 0.43889  -0.139680970588
 C2 0.618101 0.381525 0.43888  -0.139680970588
 C1 0.184842 0.792614 0.5556  0.146470279412
 C1 0.684519 0.792826 0.55570  0.146470279412
 C2 0.147423 0.733463 0.54897  -0.139680970588
 C2 0.647249 0.733608 0.54904  -0.139680970588
 C3 0.057194 0.738448 0.52867  0.0514348627451
 C3 0.557046 0.738482 0.52872  0.0514348627451
 C2 0.009909 0.805072 0.51628  -0.139680970588
 C2 0.509646 0.805071 0.51633  -0.139680970588
 C1 0.05161 0.861607 0.52432  0.146470279412
 C1 0.551195 0.86167 0.52439  0.146470279412
 C3 0.012809 0.678079 0.52031  0.0514348627451
 C3 0.512776 0.678059 0.52034  0.0514348627451
 C2 0.452014 0.678704 0.47193  -0.139680970588
 C2 0.951991 0.678763 0.47191  -0.139680970588
 C2 0.4078 0.622656 0.46428  -0.139680970588
 C2 0.907739 0.622734 0.46426  -0.139680970588
 C3 0.422325 0.563621 0.50475  0.0514348627451
 C3 0.922232 0.563697 0.50473  0.0514348627451
 C2 0.484533 0.562599 0.55224  -0.139680970588
 C2 0.984445 0.562644 0.55222  -0.139680970588
 C2 0.028489 0.618344 0.56030  -0.139680970588
 C2 0.528495 0.618326 0.56033  -0.139680970588
 C1 0.418826 0.444657 0.79315  0.146470279412
 C1 0.918616 0.444686 0.79299  0.146470279412
 C2 0.4856 0.451037 0.73383  -0.139680970588
 C2 0.985539 0.451028 0.73374  -0.139680970588
 C3 0.073554 0.471249 0.73843  0.0514348627451
 C3 0.573597 0.471288 0.7384  0.0514348627451
 C2 0.087845 0.483837 0.8048  -0.139680970588
 C2 0.588078 0.483856 0.80482  -0.139680970588
 C1 0.017928 0.476085 0.86154  0.146470279412
 C1 0.518304 0.476073 0.86155  0.146470279412
 C3 0.147979 0.479458 0.67793  0.0514348627451
 C3 0.647921 0.479531 0.67788  0.0514348627451
 C2 0.208567 0.527974 0.67843  -0.139680970588
 C2 0.708453 0.528085 0.67837  -0.139680970588
 C2 0.280705 0.535549 0.62232  -0.139680970588
 C2 0.780581 0.535669 0.62225  -0.139680970588
 C3 0.295494 0.494884 0.56335  0.0514348627451
 C3 0.795365 0.494992 0.56330  0.0514348627451
 C2 0.233631 0.447295 0.56245  -0.139680970588
 C2 0.733534 0.447383 0.56240  -0.139680970588
 C2 0.161858 0.439304 0.61824  -0.139680970588
 C2 0.661792 0.439368 0.61820  -0.139680970588
 C1 0.037249 0.555571 0.20792  0.146470279412
 C1 0.537565 0.555558 0.20762  0.146470279412
 C2 0.077959 0.54913 0.26690  -0.139680970588
 C2 0.578093 0.54909 0.26668  -0.139680970588
 C3 0.17844 0.528879 0.26175  0.0514348627451
 C3 0.678551 0.528825 0.26165  0.0514348627451
 C2 0.232058 0.516374 0.19513  -0.139680970588
 C2 0.732341 0.516308 0.19508  -0.139680970588
 C1 0.186373 0.524225 0.13876  0.146470279412
 C1 0.68683 0.524187 0.13863  0.146470279412
 C3 0.226937 0.520609 0.32194  0.0514348627451
 C3 0.72692 0.520574 0.32190  0.0514348627451
 C2 0.312029 0.472124 0.32111  -0.139680970588
 C2 0.811962 0.472058 0.32113  -0.139680970588
 C2 0.359944 0.464468 0.37703  -0.139680970588
 C2 0.859857 0.464451 0.37705  -0.139680970588
 C3 0.324943 0.505035 0.43609  0.0514348627451
 C3 0.824864 0.505096 0.43606  0.0514348627451
 C2 0.238923 0.552649 0.43728  -0.139680970588
 C2 0.738864 0.552719 0.4372  -0.139680970588
 C2 0.191016 0.560711 0.381  -0.139680970588
 C2 0.690979 0.560734 0.38161  -0.139680970588
 C1 0.016382 0.055558 0.29334  0.146470279412
 C1 0.516086 0.055573 0.2931  0.146470279412
 C2 0.086339 0.049093 0.23400  -0.139680970588
 C2 0.586161 0.049106 0.23390  -0.139680970588
 C3 0.184419 0.028829 0.23853  0.0514348627451
 C3 0.684202 0.028804 0.23854  0.0514348627451
 C2 0.205154 0.016337 0.30491  -0.139680970588
 C2 0.704757 0.01626 0.30496  -0.139680970588
 C1 0.131498 0.024197 0.36166  0.146470279412
 C1 0.630983 0.024127 0.36164  0.146470279412
 C3 0.262851 0.020479 0.17797  0.0514348627451
 C3 0.762727 0.02048 0.17802  0.0514348627451
 C2 0.34756 0.97195 0.1784  -0.139680970588
 C2 0.847452 0.971968 0.17848  -0.139680970588
 C2 0.423487 0.964277 0.12228  -0.139680970588
 C2 0.923402 0.964298 0.12236  -0.139680970588
 C3 0.418049 0.004839 0.06338  0.0514348627451
 C3 0.917991 0.004844 0.06344  0.0514348627451
 C2 0.332483 0.052401 0.06251  -0.139680970588
 C2 0.832425 0.052406 0.06257  -0.139680970588
 C2 0.256722 0.060507 0.11833  -0.139680970588
 C2 0.756648 0.06051 0.11838  -0.139680970588
 C1 0.190381 0.944625 0.70744  0.146470279412
 C1 0.690108 0.944659 0.70764  0.146470279412
 C2 0.227714 0.950928 0.76654  -0.139680970588
 C2 0.727606 0.950887 0.76668  -0.139680970588
 C3 0.318157 0.971056 0.76162  0.0514348627451
 C3 0.818017 0.971083 0.76169  0.0514348627451
 C2 0.365761 0.983615 0.69512  -0.139680970588
 C2 0.865422 0.983759 0.69516  -0.139680970588
 C1 0.32415 0.975903 0.63862  0.146470279412
 C1 0.823653 0.976115 0.63872  0.146470279412
 C3 0.36245 0.979196 0.82191  0.0514348627451
 C3 0.862407 0.979188 0.82194  0.0514348627451
 C2 0.423334 0.027697 0.82131  -0.139680970588
 C2 0.923256 0.02771 0.82136  -0.139680970588
 C2 0.467449 0.035264 0.87725  -0.139680970588
 C2 0.967374 0.035272 0.87731  -0.139680970588
 C3 0.452723 0.99459 0.93611  0.0514348627451
 C3 0.95269 0.994574 0.93616  0.0514348627451
 C2 0.390495 0.946937 0.93707  -0.139680970588
 C2 0.890502 0.946897 0.93710  -0.139680970588
 C2 0.346574 0.93897 0.88145  -0.139680970588
 C2 0.846589 0.938932 0.88147  -0.139680970588
 C1 0.455972 0.7077 0.05582  0.146470279412
 C1 0.955679 0.707543 0.05593  0.146470279412
 C2 0.389032 0.766768 0.04914  -0.139680970588
 C2 0.888896 0.766682 0.04919  -0.139680970588
 C3 0.301371 0.761618 0.0287  0.0514348627451
 C3 0.801238 0.761634 0.02877  0.0514348627451
 C2 0.287444 0.694916 0.01634  -0.139680970588
 C2 0.78713 0.694977 0.01635  -0.139680970588
 C1 0.357344 0.638476 0.02443  0.146470279412
 C1 0.856876 0.638468 0.02450  0.146470279412
 C3 0.226834 0.821884 0.02041  0.0514348627451
 C3 0.726804 0.821938 0.02037  0.0514348627451
 C2 0.166448 0.821006 0.97200  -0.139680970588
 C2 0.666453 0.821063 0.97193  -0.139680970588
 C2 0.094233 0.876956 0.96435  -0.139680970588
 C2 0.594243 0.877006 0.96428  -0.139680970588
 C3 0.079199 0.936103 0.0048  0.0514348627451
 C3 0.579216 0.936142 0.00479  0.0514348627451
 C2 0.140785 0.937333 0.0523  -0.139680970588
 C2 0.64079 0.937384 0.0523  -0.139680970588
 C2 0.212603 0.881726 0.0604  -0.139680970588
 C2 0.712589 0.881774 0.06040  -0.139680970588
 C1 0.33769 0.292707 0.94467  0.146470279412
 C1 0.837336 0.292956 0.94469  0.146470279412
 C2 0.297111 0.233484 0.95104  -0.139680970588
 C2 0.796927 0.233658 0.95110  -0.139680970588
 C3 0.196603 0.238354 0.97121  0.0514348627451
 C3 0.696437 0.238416 0.97129  0.0514348627451
 C2 0.142844 0.304941 0.98372  -0.139680970588
 C2 0.642517 0.304954 0.98381  -0.139680970588
 C1 0.188414 0.36155 0.97593  0.146470279412
 C1 0.687924 0.361637 0.9759  0.146470279412
 C3 0.148144 0.177928 0.979  0.0514348627451
 C3 0.6481 0.177938 0.97947  0.0514348627451
 C2 0.062947 0.178557 0.02786  -0.139680970588
 C2 0.562941 0.178519 0.0279  -0.139680970588
 C2 0.014927 0.122498 0.03539  -0.139680970588
 C2 0.514925 0.122464 0.03544  -0.139680970588
 C3 0.04991 0.063484 0.99472  0.0514348627451
 C3 0.549904 0.063498 0.99470  0.0514348627451
 C2 0.136047 0.062492 0.9471  -0.139680970588
 C2 0.636036 0.062534 0.94710  -0.139680970588
 C2 0.184061 0.118221 0.93918  -0.139680970588
 C2 0.684035 0.118268 0.93920  -0.139680970588
 C4 0.374829 0.499919 0.49964  0.0364365294118
 C4 0.874715 0.500013 0.49962  0.0364365294118
 C4 0.999958 0.999738 0.99977  0.0364365294118
 C4 0.499965 0.999755 0.99971  0.0364365294118
 I1 0.337699 0.94999 0.45016  -0.413445970588
 I1 0.837509 0.950249 0.45046  -0.413445970588
 I1 0.037938 0.049828 0.55020  -0.413445970588
 I1 0.537497 0.050129 0.54996  -0.413445970588
 I1 0.43756 0.450311 0.05006  -0.413445970588
 I1 0.937334 0.450064 0.04982  -0.413445970588
 I1 0.187328 0.549839 0.95065  -0.413445970588
 I1 0.687351 0.550181 0.95026  -0.413445970588
 N1 0.338122 0.143234 0.45643  -0.256159720588
 N1 0.83863 0.143284 0.45655  -0.256159720588
 N1 0.138236 0.856847 0.54402  -0.256159720588
 N1 0.637773 0.857024 0.54413  -0.256159720588
 N1 0.433809 0.456425 0.85716  -0.256159720588
 N1 0.933399 0.456487 0.85705  -0.256159720588
 N1 0.089788 0.543866 0.14368  -0.256159720588
 N1 0.590281 0.543883 0.14343  -0.256159720588
 N1 0.037219 0.043844 0.35732  -0.256159720588
 N1 0.536743 0.043817 0.35720  -0.256159720588
 N1 0.237333 0.956345 0.64332  -0.256159720588
 N1 0.736842 0.956517 0.64349  -0.256159720588
 N1 0.441498 0.643385 0.04422  -0.256159720588
 N1 0.941013 0.643271 0.04436  -0.256159720588
 N1 0.285018 0.356901 0.95640  -0.256159720588
 N1 0.784492 0.357098 0.95638  -0.256159720588
