#======================================================================

# CRYSTAL DATA

#----------------------------------------------------------------------

data_VESTA_phase_1


_pd_phase_name                         MOF
_cell_length_a                         23.44200
_cell_length_b                         23.97400
_cell_length_c                         14.05900
_cell_angle_alpha                      112.34500
_cell_angle_beta                       89.89600
_cell_angle_gamma                      118.64400
_symmetry_space_group_name_H-M         "P 1"
_symmetry_Int_Tables_number            1

loop_
_symmetry_equiv_pos_as_xyz
   "x, y, z"

loop_
   _atom_site_label
   _atom_site_fract_x
   _atom_site_fract_y
   _atom_site_fract_z
 _atom_site_charge
 Zn1 0.168174 0.358796 0.75529  0.883687156863
 Zn1 0.168158 0.858754 0.75525  0.883687156863
 Zn1 0.66818 0.358763 0.75523  0.883687156863
 Zn1 0.668166 0.858724 0.755  0.883687156863
 Zn1 0.192897 0.362745 0.25987  0.883687156863
 Zn1 0.192922 0.862774 0.25999  0.883687156863
 Zn1 0.692925 0.362717 0.25989  0.883687156863
 Zn1 0.692953 0.862747 0.26002  0.883687156863
 H1 0.268893 0.220374 0.16551  0.11442627451
 H1 0.268968 0.720434 0.16557  0.11442627451
 H1 0.768957 0.220348 0.16550  0.11442627451
 H1 0.769033 0.720408 0.16557  0.11442627451
 H1 0.077797 0.103015 0.95457  0.11442627451
 H1 0.07785 0.603051 0.95468  0.11442627451
 H1 0.57783 0.102992 0.95465  0.11442627451
 H1 0.577886 0.603031 0.95476  0.11442627451
 H1 0.09935 0.004783 0.85817  0.11442627451
 H1 0.099412 0.504827 0.85826  0.11442627451
 H1 0.599372 0.004757 0.8582  0.11442627451
 H1 0.599437 0.504803 0.85829  0.11442627451
 H1 0.198825 0.280769 0.53428  0.11442627451
 H1 0.198841 0.780751 0.53427  0.11442627451
 H1 0.698831 0.280736 0.53422  0.11442627451
 H1 0.698849 0.78072 0.53421  0.11442627451
 H1 0.281027 0.496253 0.73598  0.11442627451
 H1 0.281014 0.996229 0.73597  0.11442627451
 H1 0.781031 0.496219 0.73593  0.11442627451
 H1 0.781024 0.996197 0.7359  0.11442627451
 H1 0.346531 0.484935 0.57036  0.11442627451
 H1 0.346539 0.984928 0.57038  0.11442627451
 H1 0.846547 0.484903 0.57033  0.11442627451
 H1 0.846561 0.984898 0.57035  0.11442627451
 H1 0.308145 0.371332 0.3834  0.11442627451
 H1 0.308187 0.871344 0.38352  0.11442627451
 H1 0.808169 0.3713 0.38345  0.11442627451
 H1 0.808215 0.871313 0.38348  0.11442627451
 H1 0.262391 0.288274 0.38651  0.11442627451
 H1 0.262414 0.788277 0.38650  0.11442627451
 H1 0.762421 0.288244 0.38648  0.11442627451
 H1 0.762448 0.788247 0.38647  0.11442627451
 H1 0.319129 0.250326 0.47907  0.11442627451
 H1 0.319118 0.750288 0.47904  0.11442627451
 H1 0.819165 0.250319 0.47908  0.11442627451
 H1 0.819156 0.750281 0.47905  0.11442627451
 H1 0.425189 0.263238 0.54267  0.11442627451
 H1 0.42516 0.763173 0.54265  0.11442627451
 H1 0.925231 0.263258 0.54272  0.11442627451
 H1 0.925204 0.763191 0.54270  0.11442627451
 H1 0.034972 0.462741 0.52673  0.11442627451
 H1 0.034996 0.96271 0.52684  0.11442627451
 H1 0.534959 0.462722 0.52669  0.11442627451
 H1 0.53498 0.962695 0.52680  0.11442627451
 H1 0.429172 0.449775 0.46279  0.11442627451
 H1 0.429211 0.949776 0.46288  0.11442627451
 H1 0.929189 0.449766 0.46279  0.11442627451
 H1 0.929232 0.949765 0.46288  0.11442627451
 H1 0.046036 0.342058 0.62350  0.11442627451
 H1 0.046002 0.841967 0.62352  0.11442627451
 H1 0.546008 0.342031 0.62345  0.11442627451
 H1 0.545972 0.841945 0.62348  0.11442627451
 H1 0.091174 0.425847 0.6227  0.11442627451
 H1 0.091159 0.925776 0.62280  0.11442627451
 H1 0.591151 0.425818 0.62265  0.11442627451
 H1 0.591133 0.925751 0.62275  0.11442627451
 H1 0.157667 0.43671 0.47991  0.11442627451
 H1 0.157676 0.93669 0.48004  0.11442627451
 H1 0.657668 0.436678 0.47989  0.11442627451
 H1 0.657677 0.93666 0.48003  0.11442627451
 H1 0.077833 0.223116 0.27041  0.11442627451
 H1 0.077857 0.723118 0.2704  0.11442627451
 H1 0.577833 0.223084 0.270  0.11442627451
 H1 0.577857 0.723088 0.27042  0.11442627451
 H1 0.009605 0.230176 0.43322  0.11442627451
 H1 0.009603 0.730128 0.43321  0.11442627451
 H1 0.509571 0.230146 0.43316  0.11442627451
 H1 0.509566 0.730101 0.4331  0.11442627451
 H2 0.312137 0.086848 0.  0.336319656863
 H2 0.312217 0.586913 0.  0.336319656863
 H2 0.812188 0.08682 0.  0.336319656863
 H2 0.812267 0.586883 0.  0.336319656863
 H2 0.34067 0.17201 0.13306  0.336319656863
 H2 0.340756 0.672082 0.13309  0.336319656863
 H2 0.840738 0.171981 0.13297  0.336319656863
 H2 0.840823 0.672051 0.13300  0.336319656863
 H1 0.452163 0.220624 0.66867  0.11442627451
 H1 0.452179 0.720528 0.66866  0.11442627451
 H1 0.952164 0.220615 0.66869  0.11442627451
 H1 0.952177 0.720512 0.66869  0.11442627451
 H1 0.023991 0.101042 0.45023  0.11442627451
 H1 0.023998 0.601007 0.4500  0.11442627451
 H1 0.523976 0.101024 0.45020  0.11442627451
 H1 0.523983 0.600988 0.45004  0.11442627451
 H1 0.405345 0.004917 0.35596  0.11442627451
 H1 0.40535 0.504892 0.35581  0.11442627451
 H1 0.905376 0.00492 0.35599  0.11442627451
 H1 0.905382 0.504895 0.35582  0.11442627451
 H1 0.085706 0.284931 0.04053  0.11442627451
 H1 0.085729 0.784913 0.04063  0.11442627451
 H1 0.585721 0.284888 0.04054  0.11442627451
 H1 0.585746 0.78487 0.04064  0.11442627451
 H1 0.213872 0.500618 0.24153  0.11442627451
 H1 0.213861 0.0 0.24157  0.11442627451
 H1 0.713918 0.500576 0.24150  0.11442627451
 H1 0.71391 0.0 0.24154  0.11442627451
 H1 0.137621 0.488693 0.07510  0.11442627451
 H1 0.137614 0.988644 0.07507  0.11442627451
 H1 0.637661 0.488649 0.07507  0.11442627451
 H1 0.637658 0.988599 0.07505  0.11442627451
 H1 0.065779 0.37484 0.8882  0.11442627451
 H1 0.065794 0.87476 0.88827  0.11442627451
 H1 0.565801 0.374791 0.88828  0.11442627451
 H1 0.56582 0.874709 0.88827  0.11442627451
 H1 0.030989 0.291844 0.8910  0.11442627451
 H1 0.031011 0.791777 0.89112  0.11442627451
 H1 0.530997 0.291798 0.89109  0.11442627451
 H1 0.531023 0.791731 0.89114  0.11442627451
 H1 0.43536 0.251173 0.97907  0.11442627451
 H1 0.435315 0.75106 0.9789  0.11442627451
 H1 0.935358 0.251188 0.97904  0.11442627451
 H1 0.935312 0.75108 0.97889  0.11442627451
 H1 0.339652 0.261057 0.0384  0.11442627451
 H1 0.3396 0.760945 0.03824  0.11442627451
 H1 0.83964 0.261049 0.03841  0.11442627451
 H1 0.839589 0.760942 0.03823  0.11442627451
 H1 0.424061 0.461612 0.02644  0.11442627451
 H1 0.424106 0.961574 0.02647  0.11442627451
 H1 0.924021 0.461617 0.0264  0.11442627451
 H1 0.924064 0.961582 0.02650  0.11442627451
 H1 0.019424 0.451722 0.96682  0.11442627451
 H1 0.01947 0.951683 0.96687  0.11442627451
 H1 0.519465 0.451694 0.966  0.11442627451
 H1 0.519514 0.951653 0.96685  0.11442627451
 H1 0.293956 0.338398 0.11867  0.11442627451
 H1 0.293959 0.838347 0.11860  0.11442627451
 H1 0.793927 0.33837 0.11866  0.11442627451
 H1 0.79393 0.838323 0.11860  0.11442627451
 H1 0.330017 0.42209 0.11802  0.11442627451
 H1 0.330034 0.922037 0.11794  0.11442627451
 H1 0.829972 0.422064 0.11802  0.11442627451
 H1 0.829989 0.922016 0.11795  0.11442627451
 H1 0.275533 0.432366 0.97377  0.11442627451
 H1 0.275544 0.932323 0.97372  0.11442627451
 H1 0.775521 0.432335 0.97372  0.11442627451
 H1 0.775532 0.932296 0.97367  0.11442627451
 H1 0.146942 0.218588 0.76469  0.11442627451
 H1 0.14691 0.718549 0.76466  0.11442627451
 H1 0.64693 0.218552 0.76466  0.11442627451
 H1 0.6469 0.718517 0.76464  0.11442627451
 H1 0.221745 0.226179 0.92830  0.11442627451
 H1 0.221721 0.726126 0.92824  0.11442627451
 H1 0.721708 0.226153 0.9283  0.11442627451
 H1 0.721683 0.726104 0.92826  0.11442627451
 H2 0.277117 0.090499 0.53722  0.336319656863
 H2 0.277137 0.590432 0.53723  0.336319656863
 H2 0.777123 0.090468 0.53723  0.336319656863
 H2 0.777141 0.590393 0.53724  0.336319656863
 H2 0.333493 0.174848 0.6399  0.336319656863
 H2 0.333519 0.674753 0.63995  0.336319656863
 H2 0.83349 0.174821 0.6399  0.336319656863
 H2 0.833513 0.674716 0.63997  0.336319656863
 C1 0.205262 0.49639 0.89786  0.646629656863
 C1 0.205192 0.99632 0.89780  0.646629656863
 C1 0.705291 0.496361 0.89782  0.646629656863
 C1 0.70522 0.996292 0.89776  0.646629656863
 C2 0.195442 0.056423 0.95712  -0.0812878431373
 C2 0.195509 0.556474 0.95720  -0.0812878431373
 C2 0.695481 0.056399 0.95710  -0.0812878431373
 C2 0.695548 0.556449 0.95719  -0.0812878431373
 C3 0.244866 0.118167 0.04548  0.363147156863
 C3 0.244944 0.618231 0.04553  0.363147156863
 C3 0.744915 0.118141 0.04545  0.363147156863
 C3 0.744994 0.618204 0.04551  0.363147156863
 C4 0.231907 0.172783 0.09771  -0.127621414566
 C4 0.231974 0.672836 0.09779  -0.127621414566
 C4 0.731963 0.172759 0.09771  -0.127621414566
 C4 0.732031 0.672812 0.09779  -0.127621414566
 C2 0.172561 0.167311 0.06555  -0.0812878431373
 C2 0.172631 0.667366 0.06561  -0.0812878431373
 C2 0.672605 0.167282 0.06560  -0.0812878431373
 C2 0.672679 0.667339 0.06566  -0.0812878431373
 C4 0.123784 0.106255 0.97878  -0.127621414566
 C4 0.12384 0.606294 0.97887  -0.127621414566
 C4 0.623822 0.106232 0.97882  -0.127621414566
 C4 0.62388 0.606271 0.97892  -0.127621414566
 C4 0.135958 0.052366 0.92622  -0.127621414566
 C4 0.136024 0.552415 0.92630  -0.127621414566
 C4 0.635988 0.05234 0.92625  -0.127621414566
 C4 0.636056 0.55239 0.92633  -0.127621414566
 C1 0.160329 0.226706 0.12155  0.646629656863
 C1 0.160375 0.726737 0.12165  0.646629656863
 C1 0.660377 0.226681 0.12159  0.646629656863
 C1 0.660424 0.726712 0.12170  0.646629656863
 C5 0.230184 0.337674 0.56656  0.116587156863
 C5 0.230195 0.837657 0.56655  0.116587156863
 C5 0.73019 0.337641 0.56651  0.116587156863
 C5 0.730204 0.837626 0.56650  0.116587156863
 C6 0.273668 0.45011 0.66855  -0.0507715931373
 C6 0.273664 0.95009 0.6685  -0.0507715931373
 C6 0.773673 0.450077 0.66850  -0.0507715931373
 C6 0.773675 0.950059 0.66850  -0.0507715931373
 C6 0.306693 0.44512 0.58813  -0.0507715931373
 C6 0.3067 0.945109 0.58814  -0.0507715931373
 C6 0.806704 0.445088 0.58809  -0.0507715931373
 C6 0.806717 0.945078 0.58810  -0.0507715931373
 C7 0.302174 0.343345 0.43248  -0.0634853431373
 C7 0.302199 0.843343 0.43249  -0.0634853431373
 C7 0.802197 0.343317 0.43245  -0.0634853431373
 C7 0.802226 0.843316 0.43247  -0.0634853431373
 C2 0.366706 0.349193 0.46655  -0.0812878431373
 C2 0.366722 0.849176 0.46658  -0.0812878431373
 C2 0.866733 0.349182 0.46655  -0.0812878431373
 C2 0.866752 0.849165 0.46658  -0.0812878431373
 C4 0.366442 0.297077 0.48942  -0.127621414566
 C4 0.366439 0.797042 0.48942  -0.127621414566
 C4 0.866476 0.297076 0.48944  -0.127621414566
 C4 0.866474 0.797039 0.48944  -0.127621414566
 C4 0.426133 0.304415 0.52565  -0.127621414566
 C4 0.426119 0.804364 0.52565  -0.127621414566
 C4 0.926169 0.304428 0.52569  -0.127621414566
 C4 0.926157 0.804375 0.525  -0.127621414566
 C2 0.487442 0.364051 0.5397  -0.0812878431373
 C2 0.487436 0.864003 0.53983  -0.0812878431373
 C2 0.987474 0.364071 0.5398  -0.0812878431373
 C2 0.98747 0.864021 0.53988  -0.0812878431373
 C4 0.487681 0.415998 0.51649  -0.127621414566
 C4 0.487694 0.915968 0.51657  -0.127621414566
 C4 0.987706 0.416011 0.51653  -0.127621414566
 C4 0.987723 0.915979 0.51660  -0.127621414566
 C4 0.428029 0.408644 0.48016  -0.127621414566
 C4 0.428053 0.90863 0.48023  -0.127621414566
 C4 0.928052 0.408642 0.48017  -0.127621414566
 C4 0.928079 0.908627 0.48024  -0.127621414566
 C7 0.052131 0.370623 0.57532  -0.0634853431373
 C7 0.052116 0.870557 0.57538  -0.0634853431373
 C7 0.552105 0.370594 0.57527  -0.0634853431373
 C7 0.552089 0.870533 0.57533  -0.0634853431373
 C5 0.126687 0.379731 0.4451  0.116587156863
 C5 0.126697 0.879709 0.44521  0.116587156863
 C5 0.626682 0.379699 0.44509  0.116587156863
 C5 0.626693 0.87968 0.445  0.116587156863
 C6 0.084324 0.268153 0.33920  -0.0507715931373
 C6 0.084341 0.768141 0.33924  -0.0507715931373
 C6 0.584318 0.268121 0.33918  -0.0507715931373
 C6 0.584335 0.768111 0.3392  -0.0507715931373
 C6 0.049919 0.271131 0.41804  -0.0507715931373
 C6 0.049924 0.771096 0.41806  -0.0507715931373
 C6 0.549896 0.2711 0.41799  -0.0507715931373
 C6 0.549899 0.771068 0.41802  -0.0507715931373
 C1 0.292755 0.498782 0.4004  0.646629656863
 C1 0.292753 0.998815 0.40052  0.646629656863
 C1 0.792775 0.498756 0.40046  0.646629656863
 C1 0.792774 0.998791 0.40055  0.646629656863
 C2 0.361911 0.057741 0.45882  -0.0812878431373
 C2 0.36192 0.557685 0.45874  -0.0812878431373
 C2 0.86193 0.057733 0.4588  -0.0812878431373
 C2 0.861937 0.557672 0.4587  -0.0812878431373
 C3 0.374471 0.119585 0.54867  0.363147156863
 C3 0.374484 0.619508 0.54864  0.363147156863
 C3 0.874481 0.119568 0.54870  0.363147156863
 C3 0.874492 0.619485 0.54867  0.363147156863
 C4 0.441386 0.172996 0.59973  -0.127621414566
 C4 0.441399 0.672915 0.59970  -0.127621414566
 C4 0.941393 0.172994 0.59975  -0.127621414566
 C4 0.941404 0.672906 0.59972  -0.127621414566
 C2 0.494427 0.166386 0.56481  -0.0812878431373
 C2 0.494439 0.66632 0.5647  -0.0812878431373
 C2 0.99444 0.166382 0.56486  -0.0812878431373
 C2 0.994451 0.666315 0.56478  -0.0812878431373
 C4 0.481918 0.105238 0.47653  -0.127621414566
 C4 0.481928 0.605193 0.47641  -0.127621414566
 C4 0.98194 0.105252 0.47655  -0.127621414566
 C4 0.981949 0.605205 0.47643  -0.127621414566
 C4 0.416484 0.052505 0.42516  -0.127621414566
 C4 0.416491 0.552465 0.42504  -0.127621414566
 C4 0.916508 0.052505 0.42519  -0.127621414566
 C4 0.916515 0.552463 0.42506  -0.127621414566
 C1 0.065311 0.224645 0.61967  0.646629656863
 C1 0.065319 0.724583 0.61961  0.646629656863
 C1 0.565307 0.224629 0.61966  0.646629656863
 C1 0.565317 0.724571 0.61959  0.646629656863
 C5 0.109963 0.341818 0.07240  0.116587156863
 C5 0.109976 0.841798 0.0724  0.116587156863
 C5 0.609984 0.341774 0.07241  0.116587156863
 C5 0.609999 0.841754 0.07248  0.116587156863
 C6 0.176161 0.454353 0.17417  -0.0507715931373
 C6 0.176157 0.954341 0.17420  -0.0507715931373
 C6 0.6762 0.454311 0.1741  -0.0507715931373
 C6 0.676199 0.954299 0.17419  -0.0507715931373
 C6 0.138417 0.449061 0.09336  -0.0507715931373
 C6 0.138415 0.949025 0.09337  -0.0507715931373
 C6 0.638453 0.449018 0.09334  -0.0507715931373
 C6 0.638454 0.948981 0.09335  -0.0507715931373
 C7 0.044104 0.346598 0.9369  -0.0634853431373
 C7 0.044117 0.846532 0.93694  -0.0634853431373
 C7 0.544124 0.346557 0.93694  -0.0634853431373
 C7 0.544141 0.846489 0.93695  -0.0634853431373
 C2 0.484183 0.350787 0.96888  -0.0812878431373
 C2 0.484189 0.850714 0.96884  -0.0812878431373
 C2 0.984165 0.350811 0.96887  -0.0812878431373
 C2 0.984169 0.85074 0.96884  -0.0812878431373
 C4 0.433082 0.297517 0.9894  -0.127621414566
 C4 0.433057 0.797422 0.98932  -0.127621414566
 C4 0.933071 0.29753 0.98942  -0.127621414566
 C4 0.933045 0.797438 0.98931  -0.127621414566
 C4 0.379249 0.30311 0.02316  -0.127621414566
 C4 0.379219 0.803015 0.02302  -0.127621414566
 C4 0.879234 0.30311 0.02314  -0.127621414566
 C4 0.879203 0.803019 0.02301  -0.127621414566
 C2 0.375381 0.36221 0.03730  -0.0812878431373
 C2 0.375378 0.862138 0.03722  -0.0812878431373
 C2 0.875356 0.362207 0.0373  -0.0812878431373
 C2 0.875352 0.862139 0.03723  -0.0812878431373
 C4 0.426336 0.4153 0.01625  -0.127621414566
 C4 0.42636 0.915245 0.0162  -0.127621414566
 C4 0.926305 0.415308 0.01627  -0.127621414566
 C4 0.926327 0.915256 0.01625  -0.127621414566
 C4 0.480113 0.409692 0.98245  -0.127621414566
 C4 0.480142 0.909638 0.98246  -0.127621414566
 C4 0.980086 0.409713 0.98246  -0.127621414566
 C4 0.980113 0.909661 0.98247  -0.127621414566
 C7 0.316001 0.367159 0.07075  -0.0634853431373
 C7 0.316005 0.867101 0.0706  -0.0634853431373
 C7 0.815968 0.367138 0.07075  -0.0634853431373
 C7 0.815972 0.867085 0.07068  -0.0634853431373
 C5 0.250861 0.375396 0.93928  0.116587156863
 C5 0.250863 0.875353 0.93922  0.116587156863
 C5 0.750845 0.375365 0.93924  0.116587156863
 C5 0.750847 0.875326 0.93919  0.116587156863
 C6 0.184453 0.263727 0.8334  -0.0507715931373
 C6 0.18443 0.763685 0.83339  -0.0507715931373
 C6 0.684436 0.263693 0.83340  -0.0507715931373
 C6 0.684415 0.763656 0.83337  -0.0507715931373
 C6 0.221589 0.266973 0.91265  -0.0507715931373
 C6 0.221572 0.766924 0.91260  -0.0507715931373
 C6 0.721559 0.266944 0.91265  -0.0507715931373
 C6 0.721543 0.7669 0.91260  -0.0507715931373
 N1 0.226012 0.382762 0.6543  -0.394950343137
 N1 0.22601 0.882738 0.65434  -0.394950343137
 N1 0.726014 0.382728 0.65430  -0.394950343137
 N1 0.726016 0.882706 0.65429  -0.394950343137
 N2 0.278556 0.373778 0.52411  0.0250596568627
 N2 0.278572 0.873768 0.52412  0.0250596568627
 N2 0.778567 0.373746 0.52407  0.0250596568627
 N2 0.778587 0.873738 0.52408  0.0250596568627
 N1 0.1322 0.336262 0.35688  -0.394950343137
 N1 0.132219 0.836259 0.35697  -0.394950343137
 N1 0.632205 0.336229 0.3568  -0.394950343137
 N1 0.632225 0.836228 0.35697  -0.394950343137
 N2 0.077349 0.341987 0.4845  0.0250596568627
 N2 0.07735 0.841945 0.48463  0.0250596568627
 N2 0.577326 0.341956 0.48452  0.0250596568627
 N2 0.577326 0.841918 0.48459  0.0250596568627
 N3 0.302647 0.123914 0.08148  -0.638677843137
 N3 0.302731 0.623983 0.08152  -0.638677843137
 N3 0.802706 0.123885 0.08140  -0.638677843137
 N3 0.80279 0.623953 0.08145  -0.638677843137
 N1 0.158023 0.387117 0.16031  -0.394950343137
 N1 0.158029 0.887114 0.16039  -0.394950343137
 N1 0.658052 0.387074 0.1603  -0.394950343137
 N1 0.658061 0.887072 0.16039  -0.394950343137
 N2 0.096969 0.377639 0.02949  0.0250596568627
 N2 0.096977 0.877598 0.02952  0.0250596568627
 N2 0.596993 0.377595 0.02949  0.0250596568627
 N2 0.597004 0.877553 0.02952  0.0250596568627
 N1 0.203097 0.331742 0.85086  -0.394950343137
 N1 0.203086 0.831703 0.8508  -0.394950343137
 N1 0.703089 0.331707 0.85082  -0.394950343137
 N1 0.703079 0.831672 0.8507  -0.394950343137
 N2 0.263224 0.337905 0.97913  0.0250596568627
 N2 0.263224 0.837856 0.97907  0.0250596568627
 N2 0.763193 0.337878 0.97913  0.0250596568627
 N2 0.763192 0.837833 0.97907  0.0250596568627
 N3 0.323276 0.126489 0.58725  -0.638677843137
 N3 0.323293 0.626394 0.58728  -0.638677843137
 N3 0.823281 0.126463 0.58727  -0.638677843137
 N3 0.823296 0.626358 0.58730  -0.638677843137
 O1 0.260906 0.001699 0.91509  -0.634240343137
 O1 0.260974 0.501751 0.91516  -0.634240343137
 O1 0.76094 0.001672 0.91499  -0.634240343137
 O1 0.761007 0.501722 0.91507  -0.634240343137
 O2 0.15358 0.439217 0.82863  -0.597827843137
 O2 0.153516 0.939149 0.82856  -0.597827843137
 O2 0.653598 0.43919 0.82861  -0.597827843137
 O2 0.653533 0.939122 0.82854  -0.597827843137
 O2 0.211376 0.284949 0.19107  -0.597827843137
 O2 0.211419 0.78499 0.1911  -0.597827843137
 O2 0.711419 0.284923 0.19112  -0.597827843137
 O2 0.711464 0.784965 0.19121  -0.597827843137
 O1 0.104293 0.218355 0.09993  -0.634240343137
 O1 0.104334 0.718372 0.10001  -0.634240343137
 O1 0.604339 0.218325 0.09997  -0.634240343137
 O1 0.604381 0.718343 0.10006  -0.634240343137
 O1 0.243064 0.005359 0.42001  -0.634240343137
 O1 0.243078 0.505331 0.41994  -0.634240343137
 O1 0.74308 0.005329 0.4200  -0.634240343137
 O1 0.743093 0.505298 0.41995  -0.634240343137
 O2 0.287123 0.441162 0.32991  -0.597827843137
 O2 0.287136 0.941195 0.33002  -0.597827843137
 O2 0.78715 0.441141 0.32993  -0.597827843137
 O2 0.787164 0.941176 0.33005  -0.597827843137
 O2 0.072585 0.283336 0.69021  -0.597827843137
 O2 0.072579 0.783263 0.69017  -0.597827843137
 O2 0.572585 0.283329 0.69017  -0.597827843137
 O2 0.572581 0.78326 0.69012  -0.597827843137
 O1 0.112434 0.21524 0.59609  -0.634240343137
 O1 0.112451 0.715197 0.59602  -0.634240343137
 O1 0.61243 0.215224 0.59607  -0.634240343137
 O1 0.612449 0.715182 0.59601  -0.634240343137
