#======================================================================

# CRYSTAL DATA

#----------------------------------------------------------------------

data_VESTA_phase_1


_chemical_name_common                  'n                  'uio-66'
_cell_length_a                         14.83397
_cell_length_b                         14.83397
_cell_length_c                         14.83397
_cell_angle_alpha                      60.00000
_cell_angle_beta                       60.00000
_cell_angle_gamma                      60.00000
_space_group_name_H-M_alt              'P 1'
_space_group_IT_number                 1

loop_
_space_group_symop_operation_xyz
   'x, y, z'

loop_
   _atom_site_label
   _atom_site_occupancy
   _atom_site_fract_x
   _atom_site_fract_y
   _atom_site_fract_z
   _atom_site_adp_type
   _atom_site_B_iso_or_equiv
   _atom_site_type_symbol
   H          1.0     0.590900      0.138000      0.422000     Biso  1.000000 H
   H          1.0     0.138000      0.590900      0.849100     Biso  1.000000 H
   H          1.0     0.422000      0.849100      0.590900     Biso  1.000000 H
   H          1.0     0.849100      0.422000      0.138000     Biso  1.000000 H
   H          1.0     0.422000      0.138000      0.849100     Biso  1.000000 H
   H          1.0     0.849100      0.138000      0.590900     Biso  1.000000 H
   H          1.0     0.138000      0.422000      0.590900     Biso  1.000000 H
   H          1.0     0.422000      0.590900      0.138000     Biso  1.000000 H
   H          1.0     0.849100      0.590900      0.422000     Biso  1.000000 H
   H          1.0     0.138000      0.849100      0.422000     Biso  1.000000 H
   H          1.0     0.590900      0.849100      0.138000     Biso  1.000000 H
   H          1.0     0.590900      0.422000      0.849100     Biso  1.000000 H
   H          1.0     0.590900      0.138000      0.849100     Biso  1.000000 H
   H          1.0     0.138000      0.590900      0.422000     Biso  1.000000 H
   H          1.0     0.422000      0.849100      0.138000     Biso  1.000000 H
   H          1.0     0.849100      0.422000      0.590900     Biso  1.000000 H
   H          1.0     0.422000      0.138000      0.590900     Biso  1.000000 H
   H          1.0     0.849100      0.138000      0.422000     Biso  1.000000 H
   H          1.0     0.138000      0.422000      0.849100     Biso  1.000000 H
   H          1.0     0.422000      0.590900      0.849100     Biso  1.000000 H
   H          1.0     0.849100      0.590900      0.138000     Biso  1.000000 H
   H          1.0     0.138000      0.849100      0.590900     Biso  1.000000 H
   H          1.0     0.590900      0.849100      0.422000     Biso  1.000000 H
   H          1.0     0.590900      0.422000      0.138000     Biso  1.000000 H
   H          1.0     0.093770      0.093770      0.718690     Biso  1.000000 H
   H          1.0     0.093770      0.718690      0.093770     Biso  1.000000 H
   H          1.0     0.093770      0.093770      0.093770     Biso  1.000000 H
   H          1.0     0.718690      0.093770      0.093770     Biso  1.000000 H
   C          1.0     0.995900      0.308800      0.995900     Biso  1.000000 C
   C          1.0     0.553400      0.075300      0.459600     Biso  1.000000 C
   C          1.0     0.075300      0.553400      0.911700     Biso  1.000000 C
   C          1.0     0.459600      0.911700      0.553400     Biso  1.000000 C
   C          1.0     0.911700      0.459600      0.075300     Biso  1.000000 C
   C          1.0     0.459600      0.075300      0.911700     Biso  1.000000 C
   C          1.0     0.911700      0.075300      0.553400     Biso  1.000000 C
   C          1.0     0.075300      0.459600      0.553400     Biso  1.000000 C
   C          1.0     0.459600      0.553400      0.075300     Biso  1.000000 C
   C          1.0     0.911700      0.553400      0.459600     Biso  1.000000 C
   C          1.0     0.075300      0.911700      0.459600     Biso  1.000000 C
   C          1.0     0.553400      0.911700      0.075300     Biso  1.000000 C
   C          1.0     0.553400      0.459600      0.911700     Biso  1.000000 C
   C          1.0     0.553400      0.075300      0.911700     Biso  1.000000 C
   C          1.0     0.075300      0.553400      0.459600     Biso  1.000000 C
   C          1.0     0.459600      0.911700      0.075300     Biso  1.000000 C
   C          1.0     0.911700      0.459600      0.553400     Biso  1.000000 C
   C          1.0     0.459600      0.075300      0.553400     Biso  1.000000 C
   C          1.0     0.911700      0.075300      0.459600     Biso  1.000000 C
   C          1.0     0.075300      0.459600      0.911700     Biso  1.000000 C
   C          1.0     0.459600      0.553400      0.911700     Biso  1.000000 C
   C          1.0     0.911700      0.553400      0.075300     Biso  1.000000 C
   C          1.0     0.075300      0.911700      0.553400     Biso  1.000000 C
   C          1.0     0.553400      0.911700      0.459600     Biso  1.000000 C
   C          1.0     0.553400      0.459600      0.075300     Biso  1.000000 C
   C          1.0     0.308800      0.995900      0.699400     Biso  1.000000 C
   C          1.0     0.995900      0.699400      0.995900     Biso  1.000000 C
   C          1.0     0.699400      0.995900      0.308800     Biso  1.000000 C
   C          1.0     0.995900      0.308800      0.699400     Biso  1.000000 C
   C          1.0     0.699400      0.308800      0.995900     Biso  1.000000 C
   C          1.0     0.308800      0.995900      0.995900     Biso  1.000000 C
   C          1.0     0.995900      0.995900      0.308800     Biso  1.000000 C
   C          1.0     0.699400      0.995900      0.995900     Biso  1.000000 C
   C          1.0     0.308800      0.699400      0.995900     Biso  1.000000 C
   C          1.0     0.995900      0.699400      0.308800     Biso  1.000000 C
   C          1.0     0.995900      0.995900      0.699400     Biso  1.000000 C
   C          1.0     0.600500      0.993800      0.993800     Biso  1.000000 C
   C          1.0     0.993800      0.600500      0.411900     Biso  1.000000 C
   C          1.0     0.411900      0.993800      0.993800     Biso  1.000000 C
   C          1.0     0.993800      0.411900      0.600500     Biso  1.000000 C
   C          1.0     0.411900      0.993800      0.600500     Biso  1.000000 C
   C          1.0     0.993800      0.993800      0.411900     Biso  1.000000 C
   C          1.0     0.993800      0.411900      0.993800     Biso  1.000000 C
   C          1.0     0.411900      0.600500      0.993800     Biso  1.000000 C
   C          1.0     0.993800      0.600500      0.993800     Biso  1.000000 C
   C          1.0     0.993800      0.993800      0.600500     Biso  1.000000 C
   C          1.0     0.600500      0.993800      0.411900     Biso  1.000000 C
   C          1.0     0.600500      0.411900      0.993800     Biso  1.000000 C
   O          1.0     0.067270      0.067270      0.067270     Biso  1.000000 O
   O          1.0     0.737300      0.073600      0.267900     Biso  1.000000 O
   O          1.0     0.073600      0.737300      0.921200     Biso  1.000000 O
   O          1.0     0.267900      0.921200      0.737300     Biso  1.000000 O
   O          1.0     0.921200      0.267900      0.073600     Biso  1.000000 O
   O          1.0     0.267900      0.073600      0.921200     Biso  1.000000 O
   O          1.0     0.921200      0.073600      0.737300     Biso  1.000000 O
   O          1.0     0.073600      0.267900      0.737300     Biso  1.000000 O
   O          1.0     0.267900      0.737300      0.073600     Biso  1.000000 O
   O          1.0     0.921200      0.737300      0.267900     Biso  1.000000 O
   O          1.0     0.073600      0.921200      0.267900     Biso  1.000000 O
   O          1.0     0.737300      0.921200      0.073600     Biso  1.000000 O
   O          1.0     0.737300      0.267900      0.921200     Biso  1.000000 O
   O          1.0     0.737300      0.073600      0.921200     Biso  1.000000 O
   O          1.0     0.073600      0.737300      0.267900     Biso  1.000000 O
   O          1.0     0.267900      0.921200      0.073600     Biso  1.000000 O
   O          1.0     0.921200      0.267900      0.737300     Biso  1.000000 O
   O          1.0     0.267900      0.073600      0.737300     Biso  1.000000 O
   O          1.0     0.921200      0.073600      0.267900     Biso  1.000000 O
   O          1.0     0.073600      0.267900      0.921200     Biso  1.000000 O
   O          1.0     0.267900      0.737300      0.921200     Biso  1.000000 O
   O          1.0     0.921200      0.737300      0.073600     Biso  1.000000 O
   O          1.0     0.073600      0.921200      0.737300     Biso  1.000000 O
   O          1.0     0.737300      0.921200      0.267900     Biso  1.000000 O
   O          1.0     0.737300      0.267900      0.073600     Biso  1.000000 O
   O          1.0     0.067270      0.067270      0.798190     Biso  1.000000 O
   O          1.0     0.067270      0.798190      0.067270     Biso  1.000000 O
   O          1.0     0.798190      0.067270      0.067270     Biso  1.000000 O
   O          1.0     0.950570      0.950570      0.950570     Biso  1.000000 O
   O          1.0     0.148290      0.950570      0.950570     Biso  1.000000 O
   O          1.0     0.950570      0.148290      0.950570     Biso  1.000000 O
   O          1.0     0.950570      0.950570      0.148290     Biso  1.000000 O
   Zr         1.0     0.879600      0.120400      0.120400     Biso  1.000000 Zr
   Zr         1.0     0.120400      0.879600      0.879600     Biso  1.000000 Zr
   Zr         1.0     0.120400      0.120400      0.879600     Biso  1.000000 Zr
   Zr         1.0     0.879600      0.120400      0.879600     Biso  1.000000 Zr
   Zr         1.0     0.120400      0.879600      0.120400     Biso  1.000000 Zr
   Zr         1.0     0.879600      0.879600      0.120400     Biso  1.000000 Zr
