#======================================================================

# CRYSTAL DATA

#----------------------------------------------------------------------

data_VESTA_phase_1


_chemical_name_common                  'dut-8(ni) open, exp'
_cell_length_a                         18.43100
_cell_length_b                         18.43100
_cell_length_c                         9.39100
_cell_angle_alpha                      90
_cell_angle_beta                       90
_cell_angle_gamma                      90
_space_group_name_H-M_alt              'P 1'
_space_group_IT_number                 1

loop_
_space_group_symop_operation_xyz
   'x, y, z'

loop_
   _atom_site_label
   _atom_site_occupancy
   _atom_site_fract_x
   _atom_site_fract_y
   _atom_site_fract_z
   _atom_site_adp_type
   _atom_site_B_iso_or_equiv
   _atom_site_type_symbol
   O          1.0     0.310698      0.181870      0.392434     Biso  1.000000 O
   O          1.0     0.662076      0.834673      0.609056     Biso  1.000000 O
   O          1.0     0.662076      0.690141      0.609056     Biso  1.000000 O
   O          1.0     0.310698      0.326402      0.392434     Biso  1.000000 O
   O          1.0     0.151346      0.177112      0.605110     Biso  1.000000 O
   O          1.0     0.821429      0.839431      0.396380     Biso  1.000000 O
   O          1.0     0.821429      0.685384      0.396380     Biso  1.000000 O
   O          1.0     0.151346      0.331159      0.605110     Biso  1.000000 O
   O          1.0     0.171948      0.177915      0.369339     Biso  1.000000 O
   O          1.0     0.800827      0.838628      0.632150     Biso  1.000000 O
   O          1.0     0.800827      0.686187      0.632150     Biso  1.000000 O
   O          1.0     0.171948      0.330356      0.369339     Biso  1.000000 O
   O          1.0     0.282690      0.176329      0.625821     Biso  1.000000 O
   O          1.0     0.690085      0.840213      0.375669     Biso  1.000000 O
   O          1.0     0.690085      0.684601      0.375669     Biso  1.000000 O
   O          1.0     0.282690      0.331942      0.625821     Biso  1.000000 O
   C          1.0     0.136511      0.152776      0.478652     Biso  1.000000 C
   C          1.0     0.836263      0.863767      0.522838     Biso  1.000000 C
   C          1.0     0.836263      0.661048      0.522838     Biso  1.000000 C
   C          1.0     0.136511      0.355495      0.478652     Biso  1.000000 C
   C          1.0     0.080241      0.100007      0.469639     Biso  1.000000 C
   C          1.0     0.892534      0.916535      0.531851     Biso  1.000000 C
   C          1.0     0.892534      0.608279      0.531851     Biso  1.000000 C
   C          1.0     0.080241      0.408264      0.469639     Biso  1.000000 C
   C          1.0     0.033879      0.077389      0.583157     Biso  1.000000 C
   C          1.0     0.938896      0.939153      0.418332     Biso  1.000000 C
   C          1.0     0.938896      0.585661      0.418332     Biso  1.000000 C
   C          1.0     0.033879      0.430882      0.583157     Biso  1.000000 C
   H          1.0     0.037371      0.105324      0.684578     Biso  1.000000 H
   H          1.0     0.935404      0.911219      0.316911     Biso  1.000000 H
   H          1.0     0.935404      0.613595      0.316911     Biso  1.000000 H
   H          1.0     0.037371      0.402947      0.684578     Biso  1.000000 H
   C          1.0     0.396172      0.057790      0.673372     Biso  1.000000 C
   C          1.0     0.576603      0.958752      0.328118     Biso  1.000000 C
   C          1.0     0.576603      0.566062      0.328118     Biso  1.000000 C
   C          1.0     0.396172      0.450481      0.673372     Biso  1.000000 C
   H          1.0     0.367691      0.074035      0.768794     Biso  1.000000 H
   H          1.0     0.605084      0.942508      0.232696     Biso  1.000000 H
   H          1.0     0.605084      0.582306      0.232696     Biso  1.000000 H
   H          1.0     0.367691      0.434237      0.768794     Biso  1.000000 H
   C          1.0     0.947921      0.014113      0.677017     Biso  1.000000 C
   C          1.0     0.024854      0.002430      0.324473     Biso  1.000000 C
   C          1.0     0.024854      0.505842      0.324473     Biso  1.000000 C
   C          1.0     0.947921      0.510701      0.677017     Biso  1.000000 C
   H          1.0     0.949176      0.026318      0.777406     Biso  1.000000 H
   H          1.0     0.023599      0.990224      0.224083     Biso  1.000000 H
   H          1.0     0.023599      0.534590      0.224083     Biso  1.000000 H
   H          1.0     0.949176      0.481953      0.777406     Biso  1.000000 H
   C          1.0     0.982546      0.019030      0.565982     Biso  1.000000 C
   C          1.0     0.990229      0.997513      0.435508     Biso  1.000000 C
   C          1.0     0.990229      0.527301      0.435508     Biso  1.000000 C
   C          1.0     0.982546      0.489242      0.565982     Biso  1.000000 C
   H          1.0     0.350271      0.302178      0.107840     Biso  1.000000 H
   H          1.0     0.622504      0.714365      0.893649     Biso  1.000000 H
   H          1.0     0.622504      0.810449      0.893649     Biso  1.000000 H
   H          1.0     0.350271      0.206094      0.107840     Biso  1.000000 H
   H          1.0     0.319951      0.206084      0.861802     Biso  1.000000 H
   H          1.0     0.652824      0.810459      0.139688     Biso  1.000000 H
   H          1.0     0.652824      0.714355      0.139688     Biso  1.000000 H
   H          1.0     0.319951      0.302188      0.861802     Biso  1.000000 H
   C          1.0     0.318731      0.151170      0.516568     Biso  1.000000 C
   C          1.0     0.654044      0.865373      0.484921     Biso  1.000000 C
   C          1.0     0.654044      0.659441      0.484921     Biso  1.000000 C
   C          1.0     0.318731      0.357101      0.516568     Biso  1.000000 C
   C          1.0     0.374507      0.086884      0.540684     Biso  1.000000 C
   C          1.0     0.598268      0.929659      0.460806     Biso  1.000000 C
   C          1.0     0.598268      0.595155      0.460806     Biso  1.000000 C
   C          1.0     0.374507      0.421387      0.540684     Biso  1.000000 C
   C          1.0     0.414539      0.061887      0.419825     Biso  1.000000 C
   C          1.0     0.558236      0.954656      0.581665     Biso  1.000000 C
   C          1.0     0.558236      0.570159      0.581665     Biso  1.000000 C
   C          1.0     0.414539      0.446384      0.419825     Biso  1.000000 C
   H          1.0     0.398070      0.080520      0.315810     Biso  1.000000 H
   H          1.0     0.574704      0.936023      0.685680     Biso  1.000000 H
   H          1.0     0.574704      0.588792      0.685680     Biso  1.000000 H
   H          1.0     0.398070      0.427751      0.315810     Biso  1.000000 H
   C          1.0     0.073851      0.061145      0.340567     Biso  1.000000 C
   C          1.0     0.898924      0.955398      0.660923     Biso  1.000000 C
   C          1.0     0.898924      0.569416      0.660923     Biso  1.000000 C
   C          1.0     0.073851      0.447126      0.340567     Biso  1.000000 C
   H          1.0     0.107622      0.075997      0.250893     Biso  1.000000 H
   H          1.0     0.865153      0.940546      0.750597     Biso  1.000000 H
   H          1.0     0.865153      0.584268      0.750597     Biso  1.000000 H
   H          1.0     0.107622      0.432275      0.250893     Biso  1.000000 H
   C          1.0     0.455319      0.008905      0.686952     Biso  1.000000 C
   C          1.0     0.517456      0.007638      0.314538     Biso  1.000000 C
   C          1.0     0.517456      0.517176      0.314538     Biso  1.000000 C
   C          1.0     0.455319      0.499366      0.686952     Biso  1.000000 C
   H          1.0     0.468975      0.005574      0.791968     Biso  1.000000 H
   H          1.0     0.503800      0.010968      0.209522     Biso  1.000000 H
   H          1.0     0.503800      0.497303      0.209522     Biso  1.000000 H
   H          1.0     0.468975      0.519240      0.791968     Biso  1.000000 H
   C          1.0     0.475879      0.013296      0.433255     Biso  1.000000 C
   C          1.0     0.496896      0.003246      0.568235     Biso  1.000000 C
   C          1.0     0.496896      0.521568      0.568235     Biso  1.000000 C
   C          1.0     0.475879      0.494975      0.433255     Biso  1.000000 C
   C          1.0     0.209471      0.189778      0.049183     Biso  1.000000 C
   C          1.0     0.763304      0.826764      0.952307     Biso  1.000000 C
   C          1.0     0.763304      0.698050      0.952307     Biso  1.000000 C
   C          1.0     0.209471      0.318493      0.049183     Biso  1.000000 C
   H          1.0     0.233607      0.139083      0.092468     Biso  1.000000 H
   H          1.0     0.739168      0.877459      0.909022     Biso  1.000000 H
   H          1.0     0.739168      0.647355      0.909022     Biso  1.000000 H
   H          1.0     0.233607      0.369188      0.092468     Biso  1.000000 H
   H          1.0     0.150916      0.187979      0.078607     Biso  1.000000 H
   H          1.0     0.821859      0.828564      0.922883     Biso  1.000000 H
   H          1.0     0.821859      0.696251      0.922883     Biso  1.000000 H
   H          1.0     0.150916      0.320292      0.078607     Biso  1.000000 H
   C          1.0     0.175696      0.190032      0.879468     Biso  1.000000 C
   C          1.0     0.797079      0.826510      0.122022     Biso  1.000000 C
   C          1.0     0.797079      0.698304      0.122022     Biso  1.000000 C
   C          1.0     0.175696      0.318239      0.879468     Biso  1.000000 C
   H          1.0     0.119536      0.188752      0.835032     Biso  1.000000 H
   H          1.0     0.853238      0.827791      0.166458     Biso  1.000000 H
   H          1.0     0.853238      0.697023      0.166458     Biso  1.000000 H
   H          1.0     0.119536      0.319520      0.835032     Biso  1.000000 H
   H          1.0     0.201898      0.139480      0.841352     Biso  1.000000 H
   H          1.0     0.770877      0.877063      0.160138     Biso  1.000000 H
   H          1.0     0.770877      0.647751      0.160138     Biso  1.000000 H
   H          1.0     0.201898      0.368792      0.841352     Biso  1.000000 H
   Ni         1.0     0.216033      0.254136      0.619642     Biso  1.000000 Ni
   Ni         1.0     0.756741      0.762407      0.381848     Biso  1.000000 Ni
   Ni         1.0     0.244828      0.254136      0.350391     Biso  1.000000 Ni
   Ni         1.0     0.727947      0.762407      0.651099     Biso  1.000000 Ni
   N          1.0     0.215680      0.254136      0.820681     Biso  1.000000 N
   N          1.0     0.757095      0.762407      0.180809     Biso  1.000000 N
   N          1.0     0.244509      0.254136      0.118676     Biso  1.000000 N
   N          1.0     0.728266      0.762407      0.882813     Biso  1.000000 N
   C          1.0     0.321127      0.254136      0.064987     Biso  1.000000 C
   C          1.0     0.651648      0.762407      0.936503     Biso  1.000000 C
   C          1.0     0.287808      0.254136      0.895532     Biso  1.000000 C
   C          1.0     0.684967      0.762407      0.105958     Biso  1.000000 C
