#======================================================================

# CRYSTAL DATA

#----------------------------------------------------------------------

data_VESTA_phase_1


_chemical_name_common                  'n                  'dut-8(ni) closed, '
_cell_length_a                         6.94720
_cell_length_b                         8.18050
_cell_length_c                         12.17220
_cell_angle_alpha                      91.14120
_cell_angle_beta                       103.87340
_cell_angle_gamma                      104.54980
_space_group_name_H-M_alt              'P 1'
_space_group_IT_number                 1

loop_
_space_group_symop_operation_xyz
   'x, y, z'

loop_
   _atom_site_label
   _atom_site_occupancy
   _atom_site_fract_x
   _atom_site_fract_y
   _atom_site_fract_z
   _atom_site_adp_type
   _atom_site_B_iso_or_equiv
   _atom_site_type_symbol
   H          1.0     0.615070      0.467370      0.446730     Biso  1.000000 H
   H          1.0     0.751000      0.397720      0.569970     Biso  1.000000 H
   H          1.0     0.664830      0.877400      0.462480     Biso  1.000000 H
   H          1.0     0.652990      0.963650      0.597260     Biso  1.000000 H
   H          1.0     0.737600      0.507120      0.760560     Biso  1.000000 H
   H          1.0     0.580280      0.641930      0.773190     Biso  1.000000 H
   H          1.0     0.385320      0.728730      0.601090     Biso  1.000000 H
   H          1.0     0.390920      0.648470      0.464090     Biso  1.000000 H
   H          1.0     0.838950      0.878970      0.772490     Biso  1.000000 H
   H          1.0     0.004350      0.745590      0.765110     Biso  1.000000 H
   H          1.0     0.027730      0.636540      0.580630     Biso  1.000000 H
   H          1.0     0.891270      0.695270      0.452880     Biso  1.000000 H
   H          1.0     0.258390      0.545570      0.965000     Biso  1.000000 H
   H          1.0     0.343480      0.525630      0.171880     Biso  1.000000 H
   H          1.0     0.076330      0.998880      0.916260     Biso  1.000000 H
   H          1.0     0.117470      0.825040      0.078220     Biso  1.000000 H
   H          1.0     0.204360      0.802810      0.284310     Biso  1.000000 H
   H          1.0     0.377730      0.351420      0.337490     Biso  1.000000 H
   H          1.0     0.984770      0.500210      0.275640     Biso  1.000000 H
   H          1.0     0.869060      0.490660      0.067670     Biso  1.000000 H
   H          1.0     0.770520      0.956000      0.255260     Biso  1.000000 H
   H          1.0     0.612490      0.793020      0.066210     Biso  1.000000 H
   H          1.0     0.495990      0.783570      0.858260     Biso  1.000000 H
   H          1.0     0.713270      0.327420      0.878410     Biso  1.000000 H
   C          1.0     0.319070      0.066660      0.456650     Biso  1.000000 C
   C          1.0     0.985970      0.230760      0.412020     Biso  1.000000 C
   C          1.0     0.496100      0.052810      0.721870     Biso  1.000000 C
   C          1.0     0.860690      0.772850      0.720990     Biso  1.000000 C
   C          1.0     0.884790      0.669150      0.541500     Biso  1.000000 C
   C          1.0     0.675780      0.608250      0.719500     Biso  1.000000 C
   C          1.0     0.484760      0.688380      0.552850     Biso  1.000000 C
   C          1.0     0.883470      0.230200      0.285170     Biso  1.000000 C
   C          1.0     0.694600      0.506800      0.537670     Biso  1.000000 C
   C          1.0     0.672340      0.850010      0.552130     Biso  1.000000 C
   C          1.0     0.909070      0.378860      0.227730     Biso  1.000000 C
   C          1.0     0.844670      0.372790      0.107660     Biso  1.000000 C
   C          1.0     0.755520      0.217140      0.039550     Biso  1.000000 C
   C          1.0     0.726510      0.066470      0.094290     Biso  1.000000 C
   C          1.0     0.788780      0.073890      0.215630     Biso  1.000000 C
   C          1.0     0.637100      0.910840      0.026210     Biso  1.000000 C
   C          1.0     0.572420      0.904780      0.906160     Biso  1.000000 C
   C          1.0     0.598700      0.053320      0.848680     Biso  1.000000 C
   C          1.0     0.693770      0.209630      0.918170     Biso  1.000000 C
   C          1.0     0.138100      0.277660      0.792810     Biso  1.000000 C
   C          1.0     0.155390      0.274190      0.920750     Biso  1.000000 C
   C          1.0     0.232260      0.421270      0.997170     Biso  1.000000 C
   C          1.0     0.284310      0.409270      0.116190     Biso  1.000000 C
   C          1.0     0.268070      0.249560      0.162860     Biso  1.000000 C
   C          1.0     0.191690      0.101150      0.088680     Biso  1.000000 C
   C          1.0     0.132990      0.114850      0.970030     Biso  1.000000 C
   C          1.0     0.176140      0.941000      0.134370     Biso  1.000000 C
   C          1.0     0.228870      0.927680      0.252780     Biso  1.000000 C
   C          1.0     0.303350      0.073930      0.329590     Biso  1.000000 C
   C          1.0     0.324840      0.235260      0.281890     Biso  1.000000 C
   N          1.0     0.876500      0.826100      0.605480     Biso  1.000000 N
   N          1.0     0.547900      0.539740      0.602700     Biso  1.000000 N
   O          1.0     0.536770      0.193020      0.674770     Biso  1.000000 O
   O          1.0     0.345800      0.926740      0.668150     Biso  1.000000 O
   O          1.0     0.944860      0.091580      0.459670     Biso  1.000000 O
   O          1.0     0.228520      0.409470      0.748450     Biso  1.000000 O
   O          1.0     0.068760      0.132740      0.733680     Biso  1.000000 O
   O          1.0     0.388230      0.210500      0.516180     Biso  1.000000 O
   O          1.0     0.227570      0.933910      0.499960     Biso  1.000000 O
   O          1.0     0.135630      0.356420      0.465900     Biso  1.000000 O
   Ni         1.0     0.105650      0.017410      0.617570     Biso  1.000000 Ni
   Ni         1.0     0.287010      0.354760      0.614430     Biso  1.000000 Ni
