#======================================================================

# CRYSTAL DATA

#----------------------------------------------------------------------

data_VESTA_phase_1


_chemical_name_common                  'n                  'irmof-10'
_cell_length_a                         17.14700
_cell_length_b                         23.32200
_cell_length_c                         25.25500
_cell_angle_alpha                      90
_cell_angle_beta                       90
_cell_angle_gamma                      90
_space_group_name_H-M_alt              'P 1'
_space_group_IT_number                 1

loop_
_space_group_symop_operation_xyz
   'x, y, z'

loop_
   _atom_site_label
   _atom_site_occupancy
   _atom_site_fract_x
   _atom_site_fract_y
   _atom_site_fract_z
   _atom_site_adp_type
   _atom_site_B_iso_or_equiv
   _atom_site_type_symbol
   Zn         1.0     0.835715      0.848212      0.937240     Biso  1.000000 Zn
   O          1.0     0.687117      0.282309      0.393902     Biso  1.000000 O
   O          1.0     0.783811      0.236515      0.437220     Biso  1.000000 O
   O          1.0     0.725783      0.967070      0.060701     Biso  1.000000 O
   O          1.0     0.807896      0.913301      0.106910     Biso  1.000000 O
   C          1.0     0.740421      0.200883      0.355811     Biso  1.000000 C
   C          1.0     0.796582      0.160106      0.354821     Biso  1.000000 C
   H          1.0     0.832799      0.157705      0.383092     Biso  1.000000 H
   C          1.0     0.801890      0.121216      0.312097     Biso  1.000000 C
   H          1.0     0.844171      0.094889      0.311305     Biso  1.000000 H
   C          1.0     0.749111      0.120015      0.272421     Biso  1.000000 C
   C          1.0     0.691608      0.161693      0.273807     Biso  1.000000 C
   H          1.0     0.651368      0.161521      0.247911     Biso  1.000000 H
   C          1.0     0.692308      0.202984      0.311899     Biso  1.000000 C
   H          1.0     0.658016      0.234800      0.308216     Biso  1.000000 H
   C          1.0     0.755876      0.078896      0.228192     Biso  1.000000 C
   C          1.0     0.713594      0.084813      0.185785     Biso  1.000000 C
   H          1.0     0.677670      0.115685      0.184201     Biso  1.000000 H
   C          1.0     0.718610      0.046994      0.141596     Biso  1.000000 C
   H          1.0     0.690791      0.055398      0.109998     Biso  1.000000 H
   C          1.0     0.763924      0.998199      0.145001     Biso  1.000000 C
   C          1.0     0.798682      0.987908      0.192120     Biso  1.000000 C
   H          1.0     0.825101      0.952706      0.197901     Biso  1.000000 H
   C          1.0     0.795824      0.029114      0.232192     Biso  1.000000 C
   H          1.0     0.823409      0.021696      0.264106     Biso  1.000000 H
   C          1.0     0.737505      0.242003      0.398495     Biso  1.000000 C
   C          1.0     0.766373      0.956908      0.100891     Biso  1.000000 C
   O          1.0     0.943722      0.845811      0.954900     Biso  1.000000 O
   C          1.0     0.106374      0.823128      0.961117     Biso  1.000000 C
   H          1.0     0.079023      0.804605      0.933201     Biso  1.000000 H
   C          1.0     0.182772      0.824415      0.959216     Biso  1.000000 C
   H          1.0     0.209599      0.806706      0.930509     Biso  1.000000 H
   O          1.0     0.943722      0.845811      0.045100     Biso  1.000000 O
   O          1.0     0.595498      0.905626      0.000000     Biso  1.000000 O
   O          1.0     0.595906      0.807907      0.000000     Biso  1.000000 O
   C          1.0     0.973581      0.843410      0.000000     Biso  1.000000 C
   C          1.0     0.065493      0.846626      0.000000     Biso  1.000000 C
   C          1.0     0.108999      0.871623      0.040784     Biso  1.000000 C
   H          1.0     0.082872      0.888217      0.070204     Biso  1.000000 H
   C          1.0     0.184989      0.872395      0.038685     Biso  1.000000 C
   H          1.0     0.212399      0.888989      0.067591     Biso  1.000000 H
   C          1.0     0.225171      0.852200      0.000000     Biso  1.000000 C
   C          1.0     0.311775      0.857088      0.000000     Biso  1.000000 C
   C          1.0     0.352890      0.808721      0.000000     Biso  1.000000 C
   H          1.0     0.326121      0.773004      0.000000     Biso  1.000000 H
   C          1.0     0.436869      0.808893      0.000000     Biso  1.000000 C
   H          1.0     0.464513      0.773519      0.000000     Biso  1.000000 H
   C          1.0     0.476177      0.857988      0.000000     Biso  1.000000 C
   C          1.0     0.432321      0.906397      0.000000     Biso  1.000000 C
   H          1.0     0.458214      0.942415      0.000000     Biso  1.000000 H
   C          1.0     0.351723      0.906011      0.000000     Biso  1.000000 C
   H          1.0     0.324197      0.941429      0.000000     Biso  1.000000 H
   C          1.0     0.561498      0.856487      0.000000     Biso  1.000000 C
   Zn         1.0     0.664314      0.348212      0.562780     Biso  1.000000 Zn
   O          1.0     0.812912      0.782309      0.106118     Biso  1.000000 O
   O          1.0     0.716219      0.736515      0.062799     Biso  1.000000 O
   O          1.0     0.774188      0.467070      0.439279     Biso  1.000000 O
   O          1.0     0.692074      0.413301      0.393110     Biso  1.000000 O
   C          1.0     0.759608      0.700926      0.144209     Biso  1.000000 C
   C          1.0     0.703388      0.660106      0.145199     Biso  1.000000 C
   H          1.0     0.667172      0.657705      0.116888     Biso  1.000000 H
   C          1.0     0.698081      0.621216      0.187884     Biso  1.000000 C
   H          1.0     0.655800      0.594889      0.188715     Biso  1.000000 H
   C          1.0     0.750919      0.620015      0.227598     Biso  1.000000 C
   C          1.0     0.808421      0.661693      0.226213     Biso  1.000000 C
   H          1.0     0.848603      0.661521      0.252108     Biso  1.000000 H
   C          1.0     0.807721      0.703027      0.188121     Biso  1.000000 C
   H          1.0     0.842013      0.734800      0.191804     Biso  1.000000 H
   C          1.0     0.744095      0.578895      0.271788     Biso  1.000000 C
   C          1.0     0.786377      0.584813      0.314195     Biso  1.000000 C
   H          1.0     0.822301      0.615685      0.315819     Biso  1.000000 H
   C          1.0     0.781419      0.546994      0.358384     Biso  1.000000 C
   H          1.0     0.809179      0.555398      0.390022     Biso  1.000000 H
   C          1.0     0.736105      0.498199      0.355019     Biso  1.000000 C
   C          1.0     0.701289      0.487908      0.307899     Biso  1.000000 C
   H          1.0     0.674870      0.452706      0.302118     Biso  1.000000 H
   C          1.0     0.704205      0.529114      0.267789     Biso  1.000000 C
   H          1.0     0.676620      0.521696      0.235914     Biso  1.000000 H
   C          1.0     0.762524      0.742003      0.101485     Biso  1.000000 C
   C          1.0     0.733598      0.456908      0.399089     Biso  1.000000 C
   O          1.0     0.556307      0.345811      0.545120     Biso  1.000000 O
   C          1.0     0.390972      0.371623      0.540804     Biso  1.000000 C
   H          1.0     0.417099      0.388217      0.570224     Biso  1.000000 H
   C          1.0     0.314982      0.372395      0.538705     Biso  1.000000 C
   H          1.0     0.287572      0.388989      0.567610     Biso  1.000000 H
   O          1.0     0.556307      0.345811      0.454920     Biso  1.000000 O
   O          1.0     0.904473      0.405583      0.500020     Biso  1.000000 O
   O          1.0     0.904123      0.307907      0.500020     Biso  1.000000 O
   C          1.0     0.526389      0.343410      0.500020     Biso  1.000000 C
   C          1.0     0.434478      0.346583      0.500020     Biso  1.000000 C
   C          1.0     0.393597      0.323085      0.461097     Biso  1.000000 C
   H          1.0     0.421007      0.304605      0.433221     Biso  1.000000 H
   C          1.0     0.317198      0.324415      0.459196     Biso  1.000000 C
   H          1.0     0.290371      0.306706      0.430489     Biso  1.000000 H
   C          1.0     0.274800      0.352200      0.500020     Biso  1.000000 C
   C          1.0     0.188196      0.357088      0.500020     Biso  1.000000 C
   C          1.0     0.147081      0.308721      0.500020     Biso  1.000000 C
   H          1.0     0.173908      0.273004      0.500020     Biso  1.000000 H
   C          1.0     0.063101      0.308893      0.500020     Biso  1.000000 C
   H          1.0     0.035516      0.273519      0.500020     Biso  1.000000 H
   C          1.0     0.023794      0.357988      0.500020     Biso  1.000000 C
   C          1.0     0.067709      0.406397      0.500020     Biso  1.000000 C
   H          1.0     0.041815      0.442415      0.500020     Biso  1.000000 H
   C          1.0     0.148306      0.406011      0.500020     Biso  1.000000 C
   H          1.0     0.175774      0.441386      0.500020     Biso  1.000000 H
   C          1.0     0.938473      0.356487      0.500020     Biso  1.000000 C
   Zn         1.0     0.708054      0.918103      0.000000     Biso  1.000000 Zn
   Zn         1.0     0.701989      0.782008      0.000000     Biso  1.000000 Zn
   Zn         1.0     0.835715      0.848212      0.062799     Biso  1.000000 Zn
   O          1.0     0.769522      0.848812      0.000000     Biso  1.000000 O
   O          1.0     0.687117      0.282309      0.606098     Biso  1.000000 O
   O          1.0     0.783811      0.236515      0.562819     Biso  1.000000 O
   O          1.0     0.725783      0.967070      0.939299     Biso  1.000000 O
   O          1.0     0.807896      0.913301      0.893090     Biso  1.000000 O
   C          1.0     0.740421      0.200883      0.644189     Biso  1.000000 C
   C          1.0     0.796582      0.160106      0.645219     Biso  1.000000 C
   H          1.0     0.832799      0.157705      0.616908     Biso  1.000000 H
   C          1.0     0.801890      0.121216      0.687903     Biso  1.000000 C
   H          1.0     0.844171      0.094889      0.688695     Biso  1.000000 H
   C          1.0     0.749111      0.120015      0.727618     Biso  1.000000 C
   C          1.0     0.691608      0.161693      0.726193     Biso  1.000000 C
   H          1.0     0.651368      0.161521      0.752089     Biso  1.000000 H
   C          1.0     0.692308      0.202984      0.688101     Biso  1.000000 C
   H          1.0     0.658016      0.234800      0.691823     Biso  1.000000 H
   C          1.0     0.755876      0.078896      0.771808     Biso  1.000000 C
   C          1.0     0.713594      0.084813      0.814215     Biso  1.000000 C
   H          1.0     0.677670      0.115685      0.815799     Biso  1.000000 H
   C          1.0     0.718610      0.046994      0.858404     Biso  1.000000 C
   H          1.0     0.690791      0.055398      0.890002     Biso  1.000000 H
   C          1.0     0.763924      0.998199      0.854999     Biso  1.000000 C
   C          1.0     0.798682      0.987908      0.807919     Biso  1.000000 C
   H          1.0     0.825101      0.952706      0.802099     Biso  1.000000 H
   C          1.0     0.795824      0.029114      0.767808     Biso  1.000000 C
   H          1.0     0.823409      0.021696      0.735894     Biso  1.000000 H
   C          1.0     0.737505      0.242003      0.601505     Biso  1.000000 C
   C          1.0     0.766373      0.956908      0.899109     Biso  1.000000 C
   Zn         1.0     0.791917      0.418103      0.500020     Biso  1.000000 Zn
   Zn         1.0     0.798040      0.282008      0.500020     Biso  1.000000 Zn
   Zn         1.0     0.664314      0.348212      0.437220     Biso  1.000000 Zn
   O          1.0     0.730507      0.348812      0.500020     Biso  1.000000 O
   O          1.0     0.812912      0.782309      0.893922     Biso  1.000000 O
   O          1.0     0.716219      0.736515      0.937201     Biso  1.000000 O
   O          1.0     0.774188      0.467070      0.560721     Biso  1.000000 O
   O          1.0     0.692074      0.413301      0.606890     Biso  1.000000 O
   C          1.0     0.759608      0.700926      0.855791     Biso  1.000000 C
   C          1.0     0.703388      0.660106      0.854801     Biso  1.000000 C
   H          1.0     0.667172      0.657705      0.883112     Biso  1.000000 H
   C          1.0     0.698081      0.621216      0.812116     Biso  1.000000 C
   H          1.0     0.655800      0.594889      0.811324     Biso  1.000000 H
   C          1.0     0.750919      0.620015      0.772402     Biso  1.000000 C
   C          1.0     0.808421      0.661693      0.773787     Biso  1.000000 C
   H          1.0     0.848603      0.661521      0.747892     Biso  1.000000 H
   C          1.0     0.807721      0.703027      0.811918     Biso  1.000000 C
   H          1.0     0.842013      0.734800      0.808196     Biso  1.000000 H
   C          1.0     0.744095      0.578895      0.728212     Biso  1.000000 C
   C          1.0     0.786377      0.584813      0.685805     Biso  1.000000 C
   H          1.0     0.822301      0.615685      0.684221     Biso  1.000000 H
   C          1.0     0.781419      0.546994      0.641616     Biso  1.000000 C
   H          1.0     0.809179      0.555398      0.610018     Biso  1.000000 H
   C          1.0     0.736105      0.498199      0.645021     Biso  1.000000 C
   C          1.0     0.701289      0.487908      0.692101     Biso  1.000000 C
   H          1.0     0.674870      0.452706      0.697921     Biso  1.000000 H
   C          1.0     0.704205      0.529114      0.732211     Biso  1.000000 C
   H          1.0     0.676620      0.521696      0.764086     Biso  1.000000 H
   C          1.0     0.762524      0.742003      0.898515     Biso  1.000000 C
   C          1.0     0.733598      0.456908      0.600911     Biso  1.000000 C
