#======================================================================

# CRYSTAL DATA

#----------------------------------------------------------------------

data_VESTA_phase_1


_chemical_name_common                  'n                  'mof-5'
_cell_length_a                         25.86584
_cell_length_b                         25.86584
_cell_length_c                         25.86584
_cell_angle_alpha                      90
_cell_angle_beta                       90
_cell_angle_gamma                      90
_space_group_name_H-M_alt              'P 1'
_space_group_IT_number                 1

loop_
_space_group_symop_operation_xyz
   'x, y, z'

loop_
   _atom_site_label
   _atom_site_occupancy
   _atom_site_fract_x
   _atom_site_fract_y
   _atom_site_fract_z
   _atom_site_adp_type
   _atom_site_B_iso_or_equiv
   _atom_site_type_symbol
   Zn         1.0     0.293367      0.293367      0.206633     Biso  1.000000 Zn
   Zn         1.0     0.706633      0.706633      0.793367     Biso  1.000000 Zn
   Zn         1.0     0.706633      0.706633      0.206633     Biso  1.000000 Zn
   Zn         1.0     0.293367      0.293367      0.793367     Biso  1.000000 Zn
   Zn         1.0     0.706633      0.293367      0.793367     Biso  1.000000 Zn
   Zn         1.0     0.293367      0.706633      0.206633     Biso  1.000000 Zn
   Zn         1.0     0.293367      0.706633      0.793367     Biso  1.000000 Zn
   Zn         1.0     0.706633      0.293367      0.206633     Biso  1.000000 Zn
   Zn         1.0     0.206633      0.293367      0.293367     Biso  1.000000 Zn
   Zn         1.0     0.793367      0.706633      0.706633     Biso  1.000000 Zn
   Zn         1.0     0.206633      0.706633      0.706633     Biso  1.000000 Zn
   Zn         1.0     0.793367      0.293367      0.293367     Biso  1.000000 Zn
   Zn         1.0     0.793367      0.706633      0.293367     Biso  1.000000 Zn
   Zn         1.0     0.206633      0.293367      0.706633     Biso  1.000000 Zn
   Zn         1.0     0.793367      0.293367      0.706633     Biso  1.000000 Zn
   Zn         1.0     0.206633      0.706633      0.293367     Biso  1.000000 Zn
   Zn         1.0     0.293367      0.206633      0.293367     Biso  1.000000 Zn
   Zn         1.0     0.706633      0.793367      0.706633     Biso  1.000000 Zn
   Zn         1.0     0.706633      0.206633      0.706633     Biso  1.000000 Zn
   Zn         1.0     0.293367      0.793367      0.293367     Biso  1.000000 Zn
   Zn         1.0     0.293367      0.793367      0.706633     Biso  1.000000 Zn
   Zn         1.0     0.706633      0.206633      0.293367     Biso  1.000000 Zn
   Zn         1.0     0.706633      0.793367      0.293367     Biso  1.000000 Zn
   Zn         1.0     0.293367      0.206633      0.706633     Biso  1.000000 Zn
   Zn         1.0     0.206633      0.793367      0.793367     Biso  1.000000 Zn
   Zn         1.0     0.793367      0.206633      0.206633     Biso  1.000000 Zn
   Zn         1.0     0.206633      0.206633      0.206633     Biso  1.000000 Zn
   Zn         1.0     0.793367      0.793367      0.793367     Biso  1.000000 Zn
   Zn         1.0     0.793367      0.206633      0.793367     Biso  1.000000 Zn
   Zn         1.0     0.206633      0.793367      0.206633     Biso  1.000000 Zn
   Zn         1.0     0.793367      0.793367      0.206633     Biso  1.000000 Zn
   Zn         1.0     0.206633      0.206633      0.793367     Biso  1.000000 Zn
   O          1.0     0.250000      0.250000      0.250000     Biso  1.000000 O
   O          1.0     0.750000      0.750000      0.750000     Biso  1.000000 O
   O          1.0     0.750000      0.750000      0.250000     Biso  1.000000 O
   O          1.0     0.250000      0.250000      0.750000     Biso  1.000000 O
   O          1.0     0.750000      0.250000      0.750000     Biso  1.000000 O
   O          1.0     0.250000      0.750000      0.250000     Biso  1.000000 O
   O          1.0     0.250000      0.750000      0.750000     Biso  1.000000 O
   O          1.0     0.750000      0.250000      0.250000     Biso  1.000000 O
   O          1.0     0.281042      0.366348      0.218958     Biso  1.000000 O
   O          1.0     0.718958      0.633652      0.781042     Biso  1.000000 O
   O          1.0     0.718958      0.633652      0.218958     Biso  1.000000 O
   O          1.0     0.281042      0.366348      0.781042     Biso  1.000000 O
   O          1.0     0.718958      0.366348      0.781042     Biso  1.000000 O
   O          1.0     0.281042      0.633652      0.218958     Biso  1.000000 O
   O          1.0     0.281042      0.633652      0.781042     Biso  1.000000 O
   O          1.0     0.718958      0.366348      0.218958     Biso  1.000000 O
   O          1.0     0.218958      0.281042      0.366348     Biso  1.000000 O
   O          1.0     0.781042      0.718958      0.633652     Biso  1.000000 O
   O          1.0     0.218958      0.718958      0.633652     Biso  1.000000 O
   O          1.0     0.781042      0.281042      0.366348     Biso  1.000000 O
   O          1.0     0.781042      0.718958      0.366348     Biso  1.000000 O
   O          1.0     0.218958      0.281042      0.633652     Biso  1.000000 O
   O          1.0     0.781042      0.281042      0.633652     Biso  1.000000 O
   O          1.0     0.218958      0.718958      0.366348     Biso  1.000000 O
   O          1.0     0.366348      0.218958      0.281042     Biso  1.000000 O
   O          1.0     0.633652      0.781042      0.718958     Biso  1.000000 O
   O          1.0     0.633652      0.218958      0.718958     Biso  1.000000 O
   O          1.0     0.366348      0.781042      0.281042     Biso  1.000000 O
   O          1.0     0.366348      0.781042      0.718958     Biso  1.000000 O
   O          1.0     0.633652      0.218958      0.281042     Biso  1.000000 O
   O          1.0     0.633652      0.781042      0.281042     Biso  1.000000 O
   O          1.0     0.366348      0.218958      0.718958     Biso  1.000000 O
   O          1.0     0.366348      0.281042      0.781042     Biso  1.000000 O
   O          1.0     0.633652      0.718958      0.218958     Biso  1.000000 O
   O          1.0     0.633652      0.718958      0.781042     Biso  1.000000 O
   O          1.0     0.366348      0.281042      0.218958     Biso  1.000000 O
   O          1.0     0.366348      0.718958      0.218958     Biso  1.000000 O
   O          1.0     0.633652      0.281042      0.781042     Biso  1.000000 O
   O          1.0     0.633652      0.281042      0.218958     Biso  1.000000 O
   O          1.0     0.366348      0.718958      0.781042     Biso  1.000000 O
   O          1.0     0.281042      0.218958      0.633652     Biso  1.000000 O
   O          1.0     0.718958      0.781042      0.366348     Biso  1.000000 O
   O          1.0     0.718958      0.218958      0.366348     Biso  1.000000 O
   O          1.0     0.281042      0.781042      0.633652     Biso  1.000000 O
   O          1.0     0.718958      0.781042      0.633652     Biso  1.000000 O
   O          1.0     0.281042      0.218958      0.366348     Biso  1.000000 O
   O          1.0     0.281042      0.781042      0.366348     Biso  1.000000 O
   O          1.0     0.718958      0.218958      0.633652     Biso  1.000000 O
   O          1.0     0.218958      0.366348      0.718958     Biso  1.000000 O
   O          1.0     0.781042      0.633652      0.281042     Biso  1.000000 O
   O          1.0     0.218958      0.633652      0.281042     Biso  1.000000 O
   O          1.0     0.781042      0.366348      0.718958     Biso  1.000000 O
   O          1.0     0.781042      0.366348      0.281042     Biso  1.000000 O
   O          1.0     0.218958      0.633652      0.718958     Biso  1.000000 O
   O          1.0     0.781042      0.633652      0.718958     Biso  1.000000 O
   O          1.0     0.218958      0.366348      0.281042     Biso  1.000000 O
   O          1.0     0.281042      0.866348      0.718958     Biso  1.000000 O
   O          1.0     0.718958      0.133652      0.281042     Biso  1.000000 O
   O          1.0     0.718958      0.133652      0.718958     Biso  1.000000 O
   O          1.0     0.281042      0.866348      0.281042     Biso  1.000000 O
   O          1.0     0.718958      0.866348      0.281042     Biso  1.000000 O
   O          1.0     0.281042      0.133652      0.718958     Biso  1.000000 O
   O          1.0     0.281042      0.133652      0.281042     Biso  1.000000 O
   O          1.0     0.718958      0.866348      0.718958     Biso  1.000000 O
   O          1.0     0.218958      0.781042      0.866348     Biso  1.000000 O
   O          1.0     0.781042      0.218958      0.133652     Biso  1.000000 O
   O          1.0     0.218958      0.218958      0.133652     Biso  1.000000 O
   O          1.0     0.781042      0.781042      0.866348     Biso  1.000000 O
   O          1.0     0.781042      0.218958      0.866348     Biso  1.000000 O
   O          1.0     0.218958      0.781042      0.133652     Biso  1.000000 O
   O          1.0     0.781042      0.781042      0.133652     Biso  1.000000 O
   O          1.0     0.218958      0.218958      0.866348     Biso  1.000000 O
   O          1.0     0.281042      0.718958      0.133652     Biso  1.000000 O
   O          1.0     0.718958      0.281042      0.866348     Biso  1.000000 O
   O          1.0     0.718958      0.718958      0.866348     Biso  1.000000 O
   O          1.0     0.281042      0.281042      0.133652     Biso  1.000000 O
   O          1.0     0.718958      0.281042      0.133652     Biso  1.000000 O
   O          1.0     0.281042      0.718958      0.866348     Biso  1.000000 O
   O          1.0     0.281042      0.281042      0.866348     Biso  1.000000 O
   O          1.0     0.718958      0.718958      0.133652     Biso  1.000000 O
   O          1.0     0.218958      0.866348      0.218958     Biso  1.000000 O
   O          1.0     0.781042      0.133652      0.781042     Biso  1.000000 O
   O          1.0     0.218958      0.133652      0.781042     Biso  1.000000 O
   O          1.0     0.781042      0.866348      0.218958     Biso  1.000000 O
   O          1.0     0.781042      0.866348      0.781042     Biso  1.000000 O
   O          1.0     0.218958      0.133652      0.218958     Biso  1.000000 O
   O          1.0     0.781042      0.133652      0.218958     Biso  1.000000 O
   O          1.0     0.218958      0.866348      0.781042     Biso  1.000000 O
   O          1.0     0.866348      0.218958      0.781042     Biso  1.000000 O
   O          1.0     0.133652      0.781042      0.218958     Biso  1.000000 O
   O          1.0     0.133652      0.218958      0.218958     Biso  1.000000 O
   O          1.0     0.866348      0.781042      0.781042     Biso  1.000000 O
   O          1.0     0.866348      0.781042      0.218958     Biso  1.000000 O
   O          1.0     0.133652      0.218958      0.781042     Biso  1.000000 O
   O          1.0     0.133652      0.781042      0.781042     Biso  1.000000 O
   O          1.0     0.866348      0.218958      0.218958     Biso  1.000000 O
   O          1.0     0.866348      0.281042      0.281042     Biso  1.000000 O
   O          1.0     0.133652      0.718958      0.718958     Biso  1.000000 O
   O          1.0     0.133652      0.718958      0.281042     Biso  1.000000 O
   O          1.0     0.866348      0.281042      0.718958     Biso  1.000000 O
   O          1.0     0.866348      0.718958      0.718958     Biso  1.000000 O
   O          1.0     0.133652      0.281042      0.281042     Biso  1.000000 O
   O          1.0     0.133652      0.281042      0.718958     Biso  1.000000 O
   O          1.0     0.866348      0.718958      0.281042     Biso  1.000000 O
   C          1.0     0.250000      0.388617      0.250000     Biso  1.000000 C
   C          1.0     0.750000      0.611383      0.750000     Biso  1.000000 C
   C          1.0     0.750000      0.611383      0.250000     Biso  1.000000 C
   C          1.0     0.250000      0.388617      0.750000     Biso  1.000000 C
   C          1.0     0.750000      0.388617      0.750000     Biso  1.000000 C
   C          1.0     0.250000      0.611383      0.250000     Biso  1.000000 C
   C          1.0     0.250000      0.611383      0.750000     Biso  1.000000 C
   C          1.0     0.750000      0.388617      0.250000     Biso  1.000000 C
   C          1.0     0.250000      0.250000      0.388617     Biso  1.000000 C
   C          1.0     0.750000      0.750000      0.611383     Biso  1.000000 C
   C          1.0     0.250000      0.750000      0.611383     Biso  1.000000 C
   C          1.0     0.750000      0.250000      0.388617     Biso  1.000000 C
   C          1.0     0.750000      0.750000      0.388617     Biso  1.000000 C
   C          1.0     0.250000      0.250000      0.611383     Biso  1.000000 C
   C          1.0     0.750000      0.250000      0.611383     Biso  1.000000 C
   C          1.0     0.250000      0.750000      0.388617     Biso  1.000000 C
   C          1.0     0.388617      0.250000      0.250000     Biso  1.000000 C
   C          1.0     0.611383      0.750000      0.750000     Biso  1.000000 C
   C          1.0     0.611383      0.250000      0.750000     Biso  1.000000 C
   C          1.0     0.388617      0.750000      0.250000     Biso  1.000000 C
   C          1.0     0.388617      0.750000      0.750000     Biso  1.000000 C
   C          1.0     0.611383      0.250000      0.250000     Biso  1.000000 C
   C          1.0     0.611383      0.750000      0.250000     Biso  1.000000 C
   C          1.0     0.388617      0.250000      0.750000     Biso  1.000000 C
   C          1.0     0.250000      0.888617      0.750000     Biso  1.000000 C
   C          1.0     0.750000      0.111383      0.250000     Biso  1.000000 C
   C          1.0     0.750000      0.111383      0.750000     Biso  1.000000 C
   C          1.0     0.250000      0.888617      0.250000     Biso  1.000000 C
   C          1.0     0.750000      0.888617      0.250000     Biso  1.000000 C
   C          1.0     0.250000      0.111383      0.750000     Biso  1.000000 C
   C          1.0     0.250000      0.111383      0.250000     Biso  1.000000 C
   C          1.0     0.750000      0.888617      0.750000     Biso  1.000000 C
   C          1.0     0.250000      0.750000      0.888617     Biso  1.000000 C
   C          1.0     0.750000      0.250000      0.111383     Biso  1.000000 C
   C          1.0     0.250000      0.250000      0.111383     Biso  1.000000 C
   C          1.0     0.750000      0.750000      0.888617     Biso  1.000000 C
   C          1.0     0.750000      0.250000      0.888617     Biso  1.000000 C
   C          1.0     0.250000      0.750000      0.111383     Biso  1.000000 C
   C          1.0     0.750000      0.750000      0.111383     Biso  1.000000 C
   C          1.0     0.250000      0.250000      0.888617     Biso  1.000000 C
   C          1.0     0.888617      0.250000      0.750000     Biso  1.000000 C
   C          1.0     0.111383      0.750000      0.250000     Biso  1.000000 C
   C          1.0     0.111383      0.250000      0.250000     Biso  1.000000 C
   C          1.0     0.888617      0.750000      0.750000     Biso  1.000000 C
   C          1.0     0.888617      0.750000      0.250000     Biso  1.000000 C
   C          1.0     0.111383      0.250000      0.750000     Biso  1.000000 C
   C          1.0     0.111383      0.750000      0.750000     Biso  1.000000 C
   C          1.0     0.888617      0.250000      0.250000     Biso  1.000000 C
   C          1.0     0.250000      0.446192      0.250000     Biso  1.000000 C
   C          1.0     0.750000      0.553808      0.750000     Biso  1.000000 C
   C          1.0     0.750000      0.553808      0.250000     Biso  1.000000 C
   C          1.0     0.250000      0.446192      0.750000     Biso  1.000000 C
   C          1.0     0.750000      0.446192      0.750000     Biso  1.000000 C
   C          1.0     0.250000      0.553808      0.250000     Biso  1.000000 C
   C          1.0     0.250000      0.553808      0.750000     Biso  1.000000 C
   C          1.0     0.750000      0.446192      0.250000     Biso  1.000000 C
   C          1.0     0.250000      0.250000      0.446192     Biso  1.000000 C
   C          1.0     0.750000      0.750000      0.553808     Biso  1.000000 C
   C          1.0     0.250000      0.750000      0.553808     Biso  1.000000 C
   C          1.0     0.750000      0.250000      0.446192     Biso  1.000000 C
   C          1.0     0.750000      0.750000      0.446192     Biso  1.000000 C
   C          1.0     0.250000      0.250000      0.553808     Biso  1.000000 C
   C          1.0     0.750000      0.250000      0.553808     Biso  1.000000 C
   C          1.0     0.250000      0.750000      0.446192     Biso  1.000000 C
   C          1.0     0.446192      0.250000      0.250000     Biso  1.000000 C
   C          1.0     0.553808      0.750000      0.750000     Biso  1.000000 C
   C          1.0     0.553808      0.250000      0.750000     Biso  1.000000 C
   C          1.0     0.446192      0.750000      0.250000     Biso  1.000000 C
   C          1.0     0.446192      0.750000      0.750000     Biso  1.000000 C
   C          1.0     0.553808      0.250000      0.250000     Biso  1.000000 C
   C          1.0     0.553808      0.750000      0.250000     Biso  1.000000 C
   C          1.0     0.446192      0.250000      0.750000     Biso  1.000000 C
   C          1.0     0.250000      0.946192      0.750000     Biso  1.000000 C
   C          1.0     0.750000      0.053808      0.250000     Biso  1.000000 C
   C          1.0     0.750000      0.053808      0.750000     Biso  1.000000 C
   C          1.0     0.250000      0.946192      0.250000     Biso  1.000000 C
   C          1.0     0.750000      0.946192      0.250000     Biso  1.000000 C
   C          1.0     0.250000      0.053808      0.750000     Biso  1.000000 C
   C          1.0     0.250000      0.053808      0.250000     Biso  1.000000 C
   C          1.0     0.750000      0.946192      0.750000     Biso  1.000000 C
   C          1.0     0.250000      0.750000      0.946192     Biso  1.000000 C
   C          1.0     0.750000      0.250000      0.053808     Biso  1.000000 C
   C          1.0     0.250000      0.250000      0.053808     Biso  1.000000 C
   C          1.0     0.750000      0.750000      0.946192     Biso  1.000000 C
   C          1.0     0.750000      0.250000      0.946192     Biso  1.000000 C
   C          1.0     0.250000      0.750000      0.053808     Biso  1.000000 C
   C          1.0     0.750000      0.750000      0.053808     Biso  1.000000 C
   C          1.0     0.250000      0.250000      0.946192     Biso  1.000000 C
   C          1.0     0.946192      0.250000      0.750000     Biso  1.000000 C
   C          1.0     0.053808      0.750000      0.250000     Biso  1.000000 C
   C          1.0     0.053808      0.250000      0.250000     Biso  1.000000 C
   C          1.0     0.946192      0.750000      0.750000     Biso  1.000000 C
   C          1.0     0.946192      0.750000      0.250000     Biso  1.000000 C
   C          1.0     0.053808      0.250000      0.750000     Biso  1.000000 C
   C          1.0     0.053808      0.750000      0.750000     Biso  1.000000 C
   C          1.0     0.946192      0.250000      0.250000     Biso  1.000000 C
   C          1.0     0.283167      0.473179      0.216833     Biso  1.000000 C
   C          1.0     0.716833      0.526821      0.783167     Biso  1.000000 C
   C          1.0     0.716833      0.526821      0.216833     Biso  1.000000 C
   C          1.0     0.283167      0.473179      0.783167     Biso  1.000000 C
   C          1.0     0.716833      0.473179      0.783167     Biso  1.000000 C
   C          1.0     0.283167      0.526821      0.216833     Biso  1.000000 C
   C          1.0     0.283167      0.526821      0.783167     Biso  1.000000 C
   C          1.0     0.716833      0.473179      0.216833     Biso  1.000000 C
   C          1.0     0.216833      0.283167      0.473179     Biso  1.000000 C
   C          1.0     0.783167      0.716833      0.526821     Biso  1.000000 C
   C          1.0     0.216833      0.716833      0.526821     Biso  1.000000 C
   C          1.0     0.783167      0.283167      0.473179     Biso  1.000000 C
   C          1.0     0.783167      0.716833      0.473179     Biso  1.000000 C
   C          1.0     0.216833      0.283167      0.526821     Biso  1.000000 C
   C          1.0     0.783167      0.283167      0.526821     Biso  1.000000 C
   C          1.0     0.216833      0.716833      0.473179     Biso  1.000000 C
   C          1.0     0.473179      0.216833      0.283167     Biso  1.000000 C
   C          1.0     0.526821      0.783167      0.716833     Biso  1.000000 C
   C          1.0     0.526821      0.216833      0.716833     Biso  1.000000 C
   C          1.0     0.473179      0.783167      0.283167     Biso  1.000000 C
   C          1.0     0.473179      0.783167      0.716833     Biso  1.000000 C
   C          1.0     0.526821      0.216833      0.283167     Biso  1.000000 C
   C          1.0     0.526821      0.783167      0.283167     Biso  1.000000 C
   C          1.0     0.473179      0.216833      0.716833     Biso  1.000000 C
   C          1.0     0.473179      0.283167      0.783167     Biso  1.000000 C
   C          1.0     0.526821      0.716833      0.216833     Biso  1.000000 C
   C          1.0     0.526821      0.716833      0.783167     Biso  1.000000 C
   C          1.0     0.473179      0.283167      0.216833     Biso  1.000000 C
   C          1.0     0.473179      0.716833      0.216833     Biso  1.000000 C
   C          1.0     0.526821      0.283167      0.783167     Biso  1.000000 C
   C          1.0     0.526821      0.283167      0.216833     Biso  1.000000 C
   C          1.0     0.473179      0.716833      0.783167     Biso  1.000000 C
   C          1.0     0.283167      0.216833      0.526821     Biso  1.000000 C
   C          1.0     0.716833      0.783167      0.473179     Biso  1.000000 C
   C          1.0     0.716833      0.216833      0.473179     Biso  1.000000 C
   C          1.0     0.283167      0.783167      0.526821     Biso  1.000000 C
   C          1.0     0.716833      0.783167      0.526821     Biso  1.000000 C
   C          1.0     0.283167      0.216833      0.473179     Biso  1.000000 C
   C          1.0     0.283167      0.783167      0.473179     Biso  1.000000 C
   C          1.0     0.716833      0.216833      0.526821     Biso  1.000000 C
   C          1.0     0.216833      0.473179      0.716833     Biso  1.000000 C
   C          1.0     0.783167      0.526821      0.283167     Biso  1.000000 C
   C          1.0     0.216833      0.526821      0.283167     Biso  1.000000 C
   C          1.0     0.783167      0.473179      0.716833     Biso  1.000000 C
   C          1.0     0.783167      0.473179      0.283167     Biso  1.000000 C
   C          1.0     0.216833      0.526821      0.716833     Biso  1.000000 C
   C          1.0     0.783167      0.526821      0.716833     Biso  1.000000 C
   C          1.0     0.216833      0.473179      0.283167     Biso  1.000000 C
   C          1.0     0.283167      0.973179      0.716833     Biso  1.000000 C
   C          1.0     0.716833      0.026821      0.283167     Biso  1.000000 C
   C          1.0     0.716833      0.026821      0.716833     Biso  1.000000 C
   C          1.0     0.283167      0.973179      0.283167     Biso  1.000000 C
   C          1.0     0.716833      0.973179      0.283167     Biso  1.000000 C
   C          1.0     0.283167      0.026821      0.716833     Biso  1.000000 C
   C          1.0     0.283167      0.026821      0.283167     Biso  1.000000 C
   C          1.0     0.716833      0.973179      0.716833     Biso  1.000000 C
   C          1.0     0.216833      0.783167      0.973179     Biso  1.000000 C
   C          1.0     0.783167      0.216833      0.026821     Biso  1.000000 C
   C          1.0     0.216833      0.216833      0.026821     Biso  1.000000 C
   C          1.0     0.783167      0.783167      0.973179     Biso  1.000000 C
   C          1.0     0.783167      0.216833      0.973179     Biso  1.000000 C
   C          1.0     0.216833      0.783167      0.026821     Biso  1.000000 C
   C          1.0     0.783167      0.783167      0.026821     Biso  1.000000 C
   C          1.0     0.216833      0.216833      0.973179     Biso  1.000000 C
   C          1.0     0.283167      0.716833      0.026821     Biso  1.000000 C
   C          1.0     0.716833      0.283167      0.973179     Biso  1.000000 C
   C          1.0     0.716833      0.716833      0.973179     Biso  1.000000 C
   C          1.0     0.283167      0.283167      0.026821     Biso  1.000000 C
   C          1.0     0.716833      0.283167      0.026821     Biso  1.000000 C
   C          1.0     0.283167      0.716833      0.973179     Biso  1.000000 C
   C          1.0     0.283167      0.283167      0.973179     Biso  1.000000 C
   C          1.0     0.716833      0.716833      0.026821     Biso  1.000000 C
   C          1.0     0.216833      0.973179      0.216833     Biso  1.000000 C
   C          1.0     0.783167      0.026821      0.783167     Biso  1.000000 C
   C          1.0     0.216833      0.026821      0.783167     Biso  1.000000 C
   C          1.0     0.783167      0.973179      0.216833     Biso  1.000000 C
   C          1.0     0.783167      0.973179      0.783167     Biso  1.000000 C
   C          1.0     0.216833      0.026821      0.216833     Biso  1.000000 C
   C          1.0     0.783167      0.026821      0.216833     Biso  1.000000 C
   C          1.0     0.216833      0.973179      0.783167     Biso  1.000000 C
   C          1.0     0.973179      0.216833      0.783167     Biso  1.000000 C
   C          1.0     0.026821      0.783167      0.216833     Biso  1.000000 C
   C          1.0     0.026821      0.216833      0.216833     Biso  1.000000 C
   C          1.0     0.973179      0.783167      0.783167     Biso  1.000000 C
   C          1.0     0.973179      0.783167      0.216833     Biso  1.000000 C
   C          1.0     0.026821      0.216833      0.783167     Biso  1.000000 C
   C          1.0     0.026821      0.783167      0.783167     Biso  1.000000 C
   C          1.0     0.973179      0.216833      0.216833     Biso  1.000000 C
   C          1.0     0.973179      0.283167      0.283167     Biso  1.000000 C
   C          1.0     0.026821      0.716833      0.716833     Biso  1.000000 C
   C          1.0     0.026821      0.716833      0.283167     Biso  1.000000 C
   C          1.0     0.973179      0.283167      0.716833     Biso  1.000000 C
   C          1.0     0.973179      0.716833      0.716833     Biso  1.000000 C
   C          1.0     0.026821      0.283167      0.283167     Biso  1.000000 C
   C          1.0     0.026821      0.283167      0.716833     Biso  1.000000 C
   C          1.0     0.973179      0.716833      0.283167     Biso  1.000000 C
   H          1.0     0.308690      0.451190      0.191310     Biso  1.000000 H
   H          1.0     0.691310      0.548810      0.808690     Biso  1.000000 H
   H          1.0     0.691310      0.548810      0.191310     Biso  1.000000 H
   H          1.0     0.308690      0.451190      0.808690     Biso  1.000000 H
   H          1.0     0.691310      0.451190      0.808690     Biso  1.000000 H
   H          1.0     0.308690      0.548810      0.191310     Biso  1.000000 H
   H          1.0     0.308690      0.548810      0.808690     Biso  1.000000 H
   H          1.0     0.691310      0.451190      0.191310     Biso  1.000000 H
   H          1.0     0.191310      0.308690      0.451190     Biso  1.000000 H
   H          1.0     0.808690      0.691310      0.548810     Biso  1.000000 H
   H          1.0     0.191310      0.691310      0.548810     Biso  1.000000 H
   H          1.0     0.808690      0.308690      0.451190     Biso  1.000000 H
   H          1.0     0.808690      0.691310      0.451190     Biso  1.000000 H
   H          1.0     0.191310      0.308690      0.548810     Biso  1.000000 H
   H          1.0     0.808690      0.308690      0.548810     Biso  1.000000 H
   H          1.0     0.191310      0.691310      0.451190     Biso  1.000000 H
   H          1.0     0.451190      0.191310      0.308690     Biso  1.000000 H
   H          1.0     0.548810      0.808690      0.691310     Biso  1.000000 H
   H          1.0     0.548810      0.191310      0.691310     Biso  1.000000 H
   H          1.0     0.451190      0.808690      0.308690     Biso  1.000000 H
   H          1.0     0.451190      0.808690      0.691310     Biso  1.000000 H
   H          1.0     0.548810      0.191310      0.308690     Biso  1.000000 H
   H          1.0     0.548810      0.808690      0.308690     Biso  1.000000 H
   H          1.0     0.451190      0.191310      0.691310     Biso  1.000000 H
   H          1.0     0.451190      0.308690      0.808690     Biso  1.000000 H
   H          1.0     0.548810      0.691310      0.191310     Biso  1.000000 H
   H          1.0     0.548810      0.691310      0.808690     Biso  1.000000 H
   H          1.0     0.451190      0.308690      0.191310     Biso  1.000000 H
   H          1.0     0.451190      0.691310      0.191310     Biso  1.000000 H
   H          1.0     0.548810      0.308690      0.808690     Biso  1.000000 H
   H          1.0     0.548810      0.308690      0.191310     Biso  1.000000 H
   H          1.0     0.451190      0.691310      0.808690     Biso  1.000000 H
   H          1.0     0.308690      0.191310      0.548810     Biso  1.000000 H
   H          1.0     0.691310      0.808690      0.451190     Biso  1.000000 H
   H          1.0     0.691310      0.191310      0.451190     Biso  1.000000 H
   H          1.0     0.308690      0.808690      0.548810     Biso  1.000000 H
   H          1.0     0.691310      0.808690      0.548810     Biso  1.000000 H
   H          1.0     0.308690      0.191310      0.451190     Biso  1.000000 H
   H          1.0     0.308690      0.808690      0.451190     Biso  1.000000 H
   H          1.0     0.691310      0.191310      0.548810     Biso  1.000000 H
   H          1.0     0.191310      0.451190      0.691310     Biso  1.000000 H
   H          1.0     0.808690      0.548810      0.308690     Biso  1.000000 H
   H          1.0     0.191310      0.548810      0.308690     Biso  1.000000 H
   H          1.0     0.808690      0.451190      0.691310     Biso  1.000000 H
   H          1.0     0.808690      0.451190      0.308690     Biso  1.000000 H
   H          1.0     0.191310      0.548810      0.691310     Biso  1.000000 H
   H          1.0     0.808690      0.548810      0.691310     Biso  1.000000 H
   H          1.0     0.191310      0.451190      0.308690     Biso  1.000000 H
   H          1.0     0.308690      0.951190      0.691310     Biso  1.000000 H
   H          1.0     0.691310      0.048810      0.308690     Biso  1.000000 H
   H          1.0     0.691310      0.048810      0.691310     Biso  1.000000 H
   H          1.0     0.308690      0.951190      0.308690     Biso  1.000000 H
   H          1.0     0.691310      0.951190      0.308690     Biso  1.000000 H
   H          1.0     0.308690      0.048810      0.691310     Biso  1.000000 H
   H          1.0     0.308690      0.048810      0.308690     Biso  1.000000 H
   H          1.0     0.691310      0.951190      0.691310     Biso  1.000000 H
   H          1.0     0.191310      0.808690      0.951190     Biso  1.000000 H
   H          1.0     0.808690      0.191310      0.048810     Biso  1.000000 H
   H          1.0     0.191310      0.191310      0.048810     Biso  1.000000 H
   H          1.0     0.808690      0.808690      0.951190     Biso  1.000000 H
   H          1.0     0.808690      0.191310      0.951190     Biso  1.000000 H
   H          1.0     0.191310      0.808690      0.048810     Biso  1.000000 H
   H          1.0     0.808690      0.808690      0.048810     Biso  1.000000 H
   H          1.0     0.191310      0.191310      0.951190     Biso  1.000000 H
   H          1.0     0.308690      0.691310      0.048810     Biso  1.000000 H
   H          1.0     0.691310      0.308690      0.951190     Biso  1.000000 H
   H          1.0     0.691310      0.691310      0.951190     Biso  1.000000 H
   H          1.0     0.308690      0.308690      0.048810     Biso  1.000000 H
   H          1.0     0.691310      0.308690      0.048810     Biso  1.000000 H
   H          1.0     0.308690      0.691310      0.951190     Biso  1.000000 H
   H          1.0     0.308690      0.308690      0.951190     Biso  1.000000 H
   H          1.0     0.691310      0.691310      0.048810     Biso  1.000000 H
   H          1.0     0.191310      0.951190      0.191310     Biso  1.000000 H
   H          1.0     0.808690      0.048810      0.808690     Biso  1.000000 H
   H          1.0     0.191310      0.048810      0.808690     Biso  1.000000 H
   H          1.0     0.808690      0.951190      0.191310     Biso  1.000000 H
   H          1.0     0.808690      0.951190      0.808690     Biso  1.000000 H
   H          1.0     0.191310      0.048810      0.191310     Biso  1.000000 H
   H          1.0     0.808690      0.048810      0.191310     Biso  1.000000 H
   H          1.0     0.191310      0.951190      0.808690     Biso  1.000000 H
   H          1.0     0.951190      0.191310      0.808690     Biso  1.000000 H
   H          1.0     0.048810      0.808690      0.191310     Biso  1.000000 H
   H          1.0     0.048810      0.191310      0.191310     Biso  1.000000 H
   H          1.0     0.951190      0.808690      0.808690     Biso  1.000000 H
   H          1.0     0.951190      0.808690      0.191310     Biso  1.000000 H
   H          1.0     0.048810      0.191310      0.808690     Biso  1.000000 H
   H          1.0     0.048810      0.808690      0.808690     Biso  1.000000 H
   H          1.0     0.951190      0.191310      0.191310     Biso  1.000000 H
   H          1.0     0.951190      0.308690      0.308690     Biso  1.000000 H
   H          1.0     0.048810      0.691310      0.691310     Biso  1.000000 H
   H          1.0     0.048810      0.691310      0.308690     Biso  1.000000 H
   H          1.0     0.951190      0.308690      0.691310     Biso  1.000000 H
   H          1.0     0.951190      0.691310      0.691310     Biso  1.000000 H
   H          1.0     0.048810      0.308690      0.308690     Biso  1.000000 H
   H          1.0     0.048810      0.308690      0.691310     Biso  1.000000 H
   H          1.0     0.951190      0.691310      0.308690     Biso  1.000000 H
