#======================================================================

# CRYSTAL DATA

#----------------------------------------------------------------------

data_VESTA_phase_1


_chemical_name_common                  'n                  'uio-67'
_cell_length_a                         19.15849
_cell_length_b                         19.15849
_cell_length_c                         19.15849
_cell_angle_alpha                      60.00000
_cell_angle_beta                       60.00000
_cell_angle_gamma                      60.00000
_space_group_name_H-M_alt              'P 1'
_space_group_IT_number                 1

loop_
_space_group_symop_operation_xyz
   'x, y, z'

loop_
   _atom_site_label
   _atom_site_occupancy
   _atom_site_fract_x
   _atom_site_fract_y
   _atom_site_fract_z
   _atom_site_adp_type
   _atom_site_B_iso_or_equiv
   _atom_site_type_symbol
   H          1.0     0.906770      0.532990      0.437470     Biso  1.000000 H
   H          1.0     0.906000      0.662200      0.308300     Biso  1.000000 H
   H          1.0     0.862000      0.076400      0.480900     Biso  1.000000 H
   H          1.0     0.866100      0.079900      0.347900     Biso  1.000000 H
   H          1.0     0.079900      0.866100      0.706100     Biso  1.000000 H
   H          1.0     0.347900      0.706100      0.866100     Biso  1.000000 H
   H          1.0     0.706100      0.347900      0.079900     Biso  1.000000 H
   H          1.0     0.347900      0.079900      0.706100     Biso  1.000000 H
   H          1.0     0.706100      0.079900      0.866100     Biso  1.000000 H
   H          1.0     0.079900      0.347900      0.866100     Biso  1.000000 H
   H          1.0     0.347900      0.866100      0.079900     Biso  1.000000 H
   H          1.0     0.706100      0.866100      0.347900     Biso  1.000000 H
   H          1.0     0.079900      0.706100      0.347900     Biso  1.000000 H
   H          1.0     0.866100      0.706100      0.079900     Biso  1.000000 H
   H          1.0     0.866100      0.347900      0.706100     Biso  1.000000 H
   H          1.0     0.076400      0.862000      0.580700     Biso  1.000000 H
   H          1.0     0.480900      0.580700      0.862000     Biso  1.000000 H
   H          1.0     0.580700      0.480900      0.076400     Biso  1.000000 H
   H          1.0     0.480900      0.076400      0.580700     Biso  1.000000 H
   H          1.0     0.580700      0.076400      0.862000     Biso  1.000000 H
   H          1.0     0.076400      0.480900      0.862000     Biso  1.000000 H
   H          1.0     0.480900      0.862000      0.076400     Biso  1.000000 H
   H          1.0     0.580700      0.862000      0.480900     Biso  1.000000 H
   H          1.0     0.076400      0.580700      0.480900     Biso  1.000000 H
   H          1.0     0.862000      0.580700      0.076400     Biso  1.000000 H
   H          1.0     0.862000      0.480900      0.580700     Biso  1.000000 H
   H          1.0     0.662200      0.906000      0.123500     Biso  1.000000 H
   H          1.0     0.308300      0.123500      0.906000     Biso  1.000000 H
   H          1.0     0.123500      0.308300      0.662200     Biso  1.000000 H
   H          1.0     0.308300      0.662200      0.123500     Biso  1.000000 H
   H          1.0     0.123500      0.662200      0.906000     Biso  1.000000 H
   H          1.0     0.662200      0.308300      0.906000     Biso  1.000000 H
   H          1.0     0.308300      0.906000      0.662200     Biso  1.000000 H
   H          1.0     0.123500      0.906000      0.308300     Biso  1.000000 H
   H          1.0     0.662200      0.123500      0.308300     Biso  1.000000 H
   H          1.0     0.906000      0.123500      0.662200     Biso  1.000000 H
   H          1.0     0.906000      0.308300      0.123500     Biso  1.000000 H
   H          1.0     0.532990      0.906770      0.122770     Biso  1.000000 H
   H          1.0     0.437470      0.122770      0.906770     Biso  1.000000 H
   H          1.0     0.122770      0.437470      0.532990     Biso  1.000000 H
   H          1.0     0.437470      0.532990      0.122770     Biso  1.000000 H
   H          1.0     0.122770      0.532990      0.906770     Biso  1.000000 H
   H          1.0     0.532990      0.437470      0.906770     Biso  1.000000 H
   H          1.0     0.437470      0.906770      0.532990     Biso  1.000000 H
   H          1.0     0.122770      0.906770      0.437470     Biso  1.000000 H
   H          1.0     0.532990      0.122770      0.437470     Biso  1.000000 H
   H          1.0     0.906770      0.122770      0.532990     Biso  1.000000 H
   H          1.0     0.906770      0.437470      0.122770     Biso  1.000000 H
   H          1.0     0.072600      0.072600      0.782200     Biso  1.000000 H
   H          1.0     0.072600      0.782200      0.072600     Biso  1.000000 H
   H          1.0     0.072600      0.072600      0.072600     Biso  1.000000 H
   H          1.0     0.782200      0.072600      0.072600     Biso  1.000000 H
   C          1.0     0.943270      0.571570      0.419570     Biso  1.000000 C
   C          1.0     0.943300      0.643600      0.346400     Biso  1.000000 C
   C          1.0     0.992320      0.991720      0.469240     Biso  1.000000 C
   C          1.0     0.995000      0.993300      0.319700     Biso  1.000000 C
   C          1.0     0.997370      0.995770      0.239290     Biso  1.000000 C
   C          1.0     0.920230      0.040330      0.442510     Biso  1.000000 C
   C          1.0     0.921730      0.041930      0.368430     Biso  1.000000 C
   C          1.0     0.041930      0.921730      0.667910     Biso  1.000000 C
   C          1.0     0.368430      0.667910      0.921730     Biso  1.000000 C
   C          1.0     0.667910      0.368430      0.041930     Biso  1.000000 C
   C          1.0     0.368430      0.041930      0.667910     Biso  1.000000 C
   C          1.0     0.667910      0.041930      0.921730     Biso  1.000000 C
   C          1.0     0.041930      0.368430      0.921730     Biso  1.000000 C
   C          1.0     0.368430      0.921730      0.041930     Biso  1.000000 C
   C          1.0     0.667910      0.921730      0.368430     Biso  1.000000 C
   C          1.0     0.041930      0.667910      0.368430     Biso  1.000000 C
   C          1.0     0.921730      0.667910      0.041930     Biso  1.000000 C
   C          1.0     0.921730      0.368430      0.667910     Biso  1.000000 C
   C          1.0     0.040330      0.920230      0.596930     Biso  1.000000 C
   C          1.0     0.442510      0.596930      0.920230     Biso  1.000000 C
   C          1.0     0.596930      0.442510      0.040330     Biso  1.000000 C
   C          1.0     0.442510      0.040330      0.596930     Biso  1.000000 C
   C          1.0     0.596930      0.040330      0.920230     Biso  1.000000 C
   C          1.0     0.040330      0.442510      0.920230     Biso  1.000000 C
   C          1.0     0.442510      0.920230      0.040330     Biso  1.000000 C
   C          1.0     0.596930      0.920230      0.442510     Biso  1.000000 C
   C          1.0     0.040330      0.596930      0.442510     Biso  1.000000 C
   C          1.0     0.920230      0.596930      0.040330     Biso  1.000000 C
   C          1.0     0.920230      0.442510      0.596930     Biso  1.000000 C
   C          1.0     0.995770      0.997370      0.767570     Biso  1.000000 C
   C          1.0     0.239290      0.767570      0.997370     Biso  1.000000 C
   C          1.0     0.767570      0.239290      0.995770     Biso  1.000000 C
   C          1.0     0.239290      0.995770      0.767570     Biso  1.000000 C
   C          1.0     0.767570      0.995770      0.997370     Biso  1.000000 C
   C          1.0     0.995770      0.239290      0.997370     Biso  1.000000 C
   C          1.0     0.239290      0.997370      0.995770     Biso  1.000000 C
   C          1.0     0.767570      0.997370      0.239290     Biso  1.000000 C
   C          1.0     0.995770      0.767570      0.239290     Biso  1.000000 C
   C          1.0     0.997370      0.767570      0.995770     Biso  1.000000 C
   C          1.0     0.997370      0.239290      0.767570     Biso  1.000000 C
   C          1.0     0.993300      0.995000      0.692000     Biso  1.000000 C
   C          1.0     0.319700      0.692000      0.995000     Biso  1.000000 C
   C          1.0     0.692000      0.319700      0.993300     Biso  1.000000 C
   C          1.0     0.319700      0.993300      0.692000     Biso  1.000000 C
   C          1.0     0.692000      0.993300      0.995000     Biso  1.000000 C
   C          1.0     0.993300      0.319700      0.995000     Biso  1.000000 C
   C          1.0     0.319700      0.995000      0.993300     Biso  1.000000 C
   C          1.0     0.692000      0.995000      0.319700     Biso  1.000000 C
   C          1.0     0.993300      0.692000      0.319700     Biso  1.000000 C
   C          1.0     0.995000      0.692000      0.993300     Biso  1.000000 C
   C          1.0     0.995000      0.319700      0.692000     Biso  1.000000 C
   C          1.0     0.991720      0.992320      0.546720     Biso  1.000000 C
   C          1.0     0.469240      0.546720      0.992320     Biso  1.000000 C
   C          1.0     0.546720      0.469240      0.991720     Biso  1.000000 C
   C          1.0     0.469240      0.991720      0.546720     Biso  1.000000 C
   C          1.0     0.546720      0.991720      0.992320     Biso  1.000000 C
   C          1.0     0.991720      0.469240      0.992320     Biso  1.000000 C
   C          1.0     0.469240      0.992320      0.991720     Biso  1.000000 C
   C          1.0     0.546720      0.992320      0.469240     Biso  1.000000 C
   C          1.0     0.991720      0.546720      0.469240     Biso  1.000000 C
   C          1.0     0.992320      0.546720      0.991720     Biso  1.000000 C
   C          1.0     0.992320      0.469240      0.546720     Biso  1.000000 C
   C          1.0     0.643600      0.943300      0.066700     Biso  1.000000 C
   C          1.0     0.346400      0.066700      0.943300     Biso  1.000000 C
   C          1.0     0.066700      0.346400      0.643600     Biso  1.000000 C
   C          1.0     0.346400      0.643600      0.066700     Biso  1.000000 C
   C          1.0     0.066700      0.643600      0.943300     Biso  1.000000 C
   C          1.0     0.643600      0.346400      0.943300     Biso  1.000000 C
   C          1.0     0.346400      0.943300      0.643600     Biso  1.000000 C
   C          1.0     0.066700      0.943300      0.346400     Biso  1.000000 C
   C          1.0     0.643600      0.066700      0.346400     Biso  1.000000 C
   C          1.0     0.943300      0.066700      0.643600     Biso  1.000000 C
   C          1.0     0.943300      0.346400      0.066700     Biso  1.000000 C
   C          1.0     0.571570      0.943270      0.065590     Biso  1.000000 C
   C          1.0     0.419570      0.065590      0.943270     Biso  1.000000 C
   C          1.0     0.065590      0.419570      0.571570     Biso  1.000000 C
   C          1.0     0.419570      0.571570      0.065590     Biso  1.000000 C
   C          1.0     0.065590      0.571570      0.943270     Biso  1.000000 C
   C          1.0     0.571570      0.419570      0.943270     Biso  1.000000 C
   C          1.0     0.419570      0.943270      0.571570     Biso  1.000000 C
   C          1.0     0.065590      0.943270      0.419570     Biso  1.000000 C
   C          1.0     0.571570      0.065590      0.419570     Biso  1.000000 C
   C          1.0     0.943270      0.065590      0.571570     Biso  1.000000 C
   C          1.0     0.943270      0.419570      0.065590     Biso  1.000000 C
   O          1.0     0.961720      0.961720      0.961720     Biso  1.000000 O
   O          1.0     0.052070      0.052070      0.052070     Biso  1.000000 O
   O          1.0     0.939800      0.795000      0.205900     Biso  1.000000 O
   O          1.0     0.938170      0.054490      0.208970     Biso  1.000000 O
   O          1.0     0.054490      0.938170      0.798370     Biso  1.000000 O
   O          1.0     0.208970      0.798370      0.938170     Biso  1.000000 O
   O          1.0     0.798370      0.208970      0.054490     Biso  1.000000 O
   O          1.0     0.208970      0.054490      0.798370     Biso  1.000000 O
   O          1.0     0.798370      0.054490      0.938170     Biso  1.000000 O
   O          1.0     0.054490      0.208970      0.938170     Biso  1.000000 O
   O          1.0     0.208970      0.938170      0.054490     Biso  1.000000 O
   O          1.0     0.798370      0.938170      0.208970     Biso  1.000000 O
   O          1.0     0.054490      0.798370      0.208970     Biso  1.000000 O
   O          1.0     0.938170      0.798370      0.054490     Biso  1.000000 O
   O          1.0     0.938170      0.208970      0.798370     Biso  1.000000 O
   O          1.0     0.795000      0.939800      0.059300     Biso  1.000000 O
   O          1.0     0.205900      0.059300      0.939800     Biso  1.000000 O
   O          1.0     0.059300      0.205900      0.795000     Biso  1.000000 O
   O          1.0     0.205900      0.795000      0.059300     Biso  1.000000 O
   O          1.0     0.059300      0.795000      0.939800     Biso  1.000000 O
   O          1.0     0.795000      0.205900      0.939800     Biso  1.000000 O
   O          1.0     0.205900      0.939800      0.795000     Biso  1.000000 O
   O          1.0     0.059300      0.939800      0.205900     Biso  1.000000 O
   O          1.0     0.795000      0.059300      0.205900     Biso  1.000000 O
   O          1.0     0.939800      0.059300      0.795000     Biso  1.000000 O
   O          1.0     0.939800      0.205900      0.059300     Biso  1.000000 O
   O          1.0     0.052070      0.052070      0.843790     Biso  1.000000 O
   O          1.0     0.052070      0.843790      0.052070     Biso  1.000000 O
   O          1.0     0.843790      0.052070      0.052070     Biso  1.000000 O
   O          1.0     0.961720      0.961720      0.114840     Biso  1.000000 O
   O          1.0     0.961720      0.114840      0.961720     Biso  1.000000 O
   O          1.0     0.114840      0.961720      0.961720     Biso  1.000000 O
   Zr         1.0     0.093200      0.093200      0.906800     Biso  1.000000 Zr
   Zr         1.0     0.906800      0.906800      0.093200     Biso  1.000000 Zr
   Zr         1.0     0.906800      0.093200      0.906800     Biso  1.000000 Zr
   Zr         1.0     0.906800      0.093200      0.093200     Biso  1.000000 Zr
   Zr         1.0     0.093200      0.906800      0.093200     Biso  1.000000 Zr
   Zr         1.0     0.093200      0.906800      0.906800     Biso  1.000000 Zr
